/*---------------------------------------------------------------------------*\
  =========                 |
  \\      /  F ield         | OpenFOAM: The Open Source CFD Toolbox
   \\    /   O peration     | Website:  https://openfoam.org
    \\  /    A nd           | Version:  8
     \\/     M anipulation  |
\*---------------------------------------------------------------------------*/
Build  : 8-340defec456f
Exec   : buoyantSimpleFoam
Date   : Mar 23 2021
Time   : 19:13:46
Host   : "wbc-System-Product-Name"
PID    : 64629
I/O    : uncollated
Case   : /home/wbc/Desktop/sky_cooling/test_inlet
nProcs : 1
sigFpe : Enabling floating point exception trapping (FOAM_SIGFPE).
fileModificationChecking : Monitoring run-time modified files using timeStampMaster (fileModificationSkew 10)
allowSystemOperations : Allowing user-supplied system call operations

// * * * * * * * * * * * * * * * * * * * * * * * * * * * * * * * * * * * * * //
Create time

Create mesh for time = 0


SIMPLE: Convergence criteria found
        p_rgh: tolerance 0.01
        U: tolerance 0.0001
        e: tolerance 0.01
        "(k|epsilon|omega)": tolerance 0.001

Reading thermophysical properties

Selecting thermodynamics package 
{
    type            heRhoThermo;
    mixture         pureMixture;
    transport       const;
    thermo          eConst;
    equationOfState Boussinesq;
    specie          specie;
    energy          sensibleInternalEnergy;
}

Reading field U

Reading/calculating face flux field phi

Creating turbulence model

Selecting turbulence model type RAS
Selecting RAS turbulence model kEpsilon
RAS
{
    model           kEpsilon;
    turbulence      on;
    printCoeffs     on;
    Cmu             0.09;
    C1              1.44;
    C2              1.92;
    C3              0;
    sigmak          1;
    sigmaEps        1.3;
}

Creating thermophysical transport model

Selecting thermophysical transport type RAS
Selecting default RAS thermophysical transport model eddyDiffusivity

Reading g

Reading hRef
Calculating field g.h


Reading pRef
Reading field p_rgh

No MRF models present

Radiation model not active: radiationProperties not found
Selecting radiationModel none
No finite volume options present

Starting time loop

Time = 1

DILUPBiCGStab:  Solving for Ux, Initial residual = 1, Final residual = 0.00832623, No Iterations 1
DILUPBiCGStab:  Solving for Uz, Initial residual = 1, Final residual = 0.0103731, No Iterations 1
DILUPBiCGStab:  Solving for e, Initial residual = 1, Final residual = 0.017521, No Iterations 1
DICPCG:  Solving for p_rgh, Initial residual = 0.999998, Final residual = 0.00972671, No Iterations 149
time step continuity errors : sum local = 0.555455, global = -0.00142355, cumulative = -0.00142355
DILUPBiCGStab:  Solving for epsilon, Initial residual = 0.0831892, Final residual = 0.00631222, No Iterations 1
DILUPBiCGStab:  Solving for k, Initial residual = 1, Final residual = 0.0135111, No Iterations 1
ExecutionTime = 0.32 s  ClockTime = 0 s

Time = 2

DILUPBiCGStab:  Solving for Ux, Initial residual = 0.209001, Final residual = 0.003391, No Iterations 1
DILUPBiCGStab:  Solving for Uz, Initial residual = 0.527399, Final residual = 0.00629804, No Iterations 1
DILUPBiCGStab:  Solving for e, Initial residual = 0.000839877, Final residual = 2.40129e-05, No Iterations 1
DICPCG:  Solving for p_rgh, Initial residual = 0.99145, Final residual = 0.00974313, No Iterations 328
time step continuity errors : sum local = 7.79092, global = -0.000456049, cumulative = -0.0018796
DILUPBiCGStab:  Solving for epsilon, Initial residual = 0.154969, Final residual = 0.0151246, No Iterations 1
DILUPBiCGStab:  Solving for k, Initial residual = 0.326486, Final residual = 0.0292204, No Iterations 1
ExecutionTime = 0.58 s  ClockTime = 0 s

Time = 3

DILUPBiCGStab:  Solving for Ux, Initial residual = 0.0231401, Final residual = 0.000184001, No Iterations 1
DILUPBiCGStab:  Solving for Uz, Initial residual = 0.044408, Final residual = 0.000454771, No Iterations 1
DILUPBiCGStab:  Solving for e, Initial residual = 0.00256989, Final residual = 8.54782e-05, No Iterations 1
DICPCG:  Solving for p_rgh, Initial residual = 0.547192, Final residual = 0.00529933, No Iterations 299
time step continuity errors : sum local = 3.44813, global = -0.000857773, cumulative = -0.00273737
DILUPBiCGStab:  Solving for epsilon, Initial residual = 0.0785771, Final residual = 0.00681164, No Iterations 1
DILUPBiCGStab:  Solving for k, Initial residual = 0.146794, Final residual = 0.0139822, No Iterations 1
ExecutionTime = 0.86 s  ClockTime = 1 s

Time = 4

DILUPBiCGStab:  Solving for Ux, Initial residual = 0.0283489, Final residual = 0.000326433, No Iterations 1
DILUPBiCGStab:  Solving for Uz, Initial residual = 0.201457, Final residual = 0.00233804, No Iterations 1
DILUPBiCGStab:  Solving for e, Initial residual = 0.00716422, Final residual = 0.000123681, No Iterations 1
DICPCG:  Solving for p_rgh, Initial residual = 0.725723, Final residual = 0.00711597, No Iterations 304
time step continuity errors : sum local = 2.44199, global = 0.00231154, cumulative = -0.00042583
DILUPBiCGStab:  Solving for epsilon, Initial residual = 0.0819197, Final residual = 0.00594772, No Iterations 1
DILUPBiCGStab:  Solving for k, Initial residual = 0.0944726, Final residual = 0.00807989, No Iterations 1
ExecutionTime = 1.12 s  ClockTime = 1 s

Time = 5

DILUPBiCGStab:  Solving for Ux, Initial residual = 0.0241494, Final residual = 0.000261727, No Iterations 1
DILUPBiCGStab:  Solving for Uz, Initial residual = 0.318459, Final residual = 0.00295893, No Iterations 1
DILUPBiCGStab:  Solving for e, Initial residual = 0.0035372, Final residual = 9.75602e-05, No Iterations 1
DICPCG:  Solving for p_rgh, Initial residual = 0.679979, Final residual = 0.00678821, No Iterations 221
time step continuity errors : sum local = 1.99391, global = -0.0161953, cumulative = -0.0166212
DILUPBiCGStab:  Solving for epsilon, Initial residual = 0.0352629, Final residual = 0.00243781, No Iterations 1
DILUPBiCGStab:  Solving for k, Initial residual = 0.0231944, Final residual = 0.00213442, No Iterations 1
ExecutionTime = 1.3 s  ClockTime = 1 s

Time = 6

DILUPBiCGStab:  Solving for Ux, Initial residual = 0.00725185, Final residual = 9.5043e-05, No Iterations 1
DILUPBiCGStab:  Solving for Uz, Initial residual = 0.116743, Final residual = 0.00146188, No Iterations 1
DILUPBiCGStab:  Solving for e, Initial residual = 0.00287823, Final residual = 4.64548e-05, No Iterations 1
DICPCG:  Solving for p_rgh, Initial residual = 0.579676, Final residual = 0.00533652, No Iterations 244
time step continuity errors : sum local = 1.1301, global = -0.0116375, cumulative = -0.0282586
DILUPBiCGStab:  Solving for epsilon, Initial residual = 0.00532315, Final residual = 0.000407322, No Iterations 1
DILUPBiCGStab:  Solving for k, Initial residual = 0.0087494, Final residual = 0.000673464, No Iterations 1
ExecutionTime = 1.53 s  ClockTime = 1 s

Time = 7

DILUPBiCGStab:  Solving for Ux, Initial residual = 0.00400436, Final residual = 5.23991e-05, No Iterations 1
DILUPBiCGStab:  Solving for Uz, Initial residual = 0.0503115, Final residual = 0.000568479, No Iterations 1
DILUPBiCGStab:  Solving for e, Initial residual = 0.00232167, Final residual = 3.74952e-05, No Iterations 1
DICPCG:  Solving for p_rgh, Initial residual = 0.56747, Final residual = 0.00547237, No Iterations 173
time step continuity errors : sum local = 0.740455, global = 0.078858, cumulative = 0.0505993
DILUPBiCGStab:  Solving for epsilon, Initial residual = 0.00507439, Final residual = 0.000252363, No Iterations 1
DILUPBiCGStab:  Solving for k, Initial residual = 0.00429925, Final residual = 0.000359195, No Iterations 1
ExecutionTime = 1.68 s  ClockTime = 2 s

Time = 8

DILUPBiCGStab:  Solving for Ux, Initial residual = 0.00659501, Final residual = 7.79214e-05, No Iterations 1
DILUPBiCGStab:  Solving for Uz, Initial residual = 0.0804213, Final residual = 0.000952183, No Iterations 1
DILUPBiCGStab:  Solving for e, Initial residual = 0.0016065, Final residual = 3.06425e-05, No Iterations 1
DICPCG:  Solving for p_rgh, Initial residual = 0.514356, Final residual = 0.00439898, No Iterations 249
time step continuity errors : sum local = 0.448084, global = 0.00665257, cumulative = 0.0572519
DILUPBiCGStab:  Solving for epsilon, Initial residual = 0.00404261, Final residual = 0.000211205, No Iterations 1
DILUPBiCGStab:  Solving for k, Initial residual = 0.00287193, Final residual = 0.000241813, No Iterations 1
ExecutionTime = 1.88 s  ClockTime = 2 s

Time = 9

DILUPBiCGStab:  Solving for Ux, Initial residual = 0.00471755, Final residual = 5.18865e-05, No Iterations 1
DILUPBiCGStab:  Solving for Uz, Initial residual = 0.0631444, Final residual = 0.000886181, No Iterations 1
DILUPBiCGStab:  Solving for e, Initial residual = 0.0011676, Final residual = 2.681e-05, No Iterations 1
DICPCG:  Solving for p_rgh, Initial residual = 0.37643, Final residual = 0.00296916, No Iterations 256
time step continuity errors : sum local = 0.239693, global = 0.00150007, cumulative = 0.058752
DILUPBiCGStab:  Solving for epsilon, Initial residual = 0.00355381, Final residual = 0.000187097, No Iterations 1
DILUPBiCGStab:  Solving for k, Initial residual = 0.00211902, Final residual = 0.000180902, No Iterations 1
ExecutionTime = 2.12 s  ClockTime = 2 s

Time = 10

DILUPBiCGStab:  Solving for Ux, Initial residual = 0.00207371, Final residual = 2.69949e-05, No Iterations 1
DILUPBiCGStab:  Solving for Uz, Initial residual = 0.0322297, Final residual = 0.000458287, No Iterations 1
DILUPBiCGStab:  Solving for e, Initial residual = 0.000944719, Final residual = 2.36482e-05, No Iterations 1
DICPCG:  Solving for p_rgh, Initial residual = 0.31388, Final residual = 0.00292084, No Iterations 217
time step continuity errors : sum local = 0.171675, global = 0.00293413, cumulative = 0.0616861
DILUPBiCGStab:  Solving for epsilon, Initial residual = 0.00304023, Final residual = 0.000163893, No Iterations 1
DILUPBiCGStab:  Solving for k, Initial residual = 0.00162911, Final residual = 0.000138055, No Iterations 1
ExecutionTime = 2.3 s  ClockTime = 2 s

Time = 11

DILUPBiCGStab:  Solving for Ux, Initial residual = 0.000825092, Final residual = 1.03433e-05, No Iterations 1
DILUPBiCGStab:  Solving for Uz, Initial residual = 0.0121888, Final residual = 0.000136832, No Iterations 1
DILUPBiCGStab:  Solving for e, Initial residual = 0.00079856, Final residual = 2.21327e-05, No Iterations 1
DICPCG:  Solving for p_rgh, Initial residual = 0.298297, Final residual = 0.00262424, No Iterations 225
time step continuity errors : sum local = 0.110273, global = -0.000823433, cumulative = 0.0608627
DILUPBiCGStab:  Solving for epsilon, Initial residual = 0.00248561, Final residual = 0.000140756, No Iterations 1
DILUPBiCGStab:  Solving for k, Initial residual = 0.00126993, Final residual = 0.000104554, No Iterations 1
ExecutionTime = 2.51 s  ClockTime = 2 s

Time = 12

DILUPBiCGStab:  Solving for Ux, Initial residual = 0.000443085, Final residual = 4.49717e-06, No Iterations 1
DILUPBiCGStab:  Solving for Uz, Initial residual = 0.00945846, Final residual = 0.000101771, No Iterations 1
DILUPBiCGStab:  Solving for e, Initial residual = 0.000698318, Final residual = 2.05639e-05, No Iterations 1
DICPCG:  Solving for p_rgh, Initial residual = 0.267239, Final residual = 0.00254282, No Iterations 234
time step continuity errors : sum local = 0.0810161, global = -0.000941679, cumulative = 0.059921
DILUPBiCGStab:  Solving for epsilon, Initial residual = 0.00206169, Final residual = 0.000122139, No Iterations 1
DILUPBiCGStab:  Solving for k, Initial residual = 0.00102399, Final residual = 8.07418e-05, No Iterations 1
ExecutionTime = 2.7 s  ClockTime = 3 s

Time = 13

DILUPBiCGStab:  Solving for Ux, Initial residual = 0.000354623, Final residual = 3.57043e-06, No Iterations 1
DILUPBiCGStab:  Solving for Uz, Initial residual = 0.00766306, Final residual = 8.05693e-05, No Iterations 1
DILUPBiCGStab:  Solving for e, Initial residual = 0.000632955, Final residual = 1.89665e-05, No Iterations 1
DICPCG:  Solving for p_rgh, Initial residual = 0.220755, Final residual = 0.00210935, No Iterations 96
time step continuity errors : sum local = 0.0568986, global = -0.00368588, cumulative = 0.0562351
DILUPBiCGStab:  Solving for epsilon, Initial residual = 0.00177466, Final residual = 0.00010927, No Iterations 1
DILUPBiCGStab:  Solving for k, Initial residual = 0.000836028, Final residual = 6.27566e-05, No Iterations 1
ExecutionTime = 2.83 s  ClockTime = 3 s

Time = 14

DILUPBiCGStab:  Solving for Ux, Initial residual = 0.000313684, Final residual = 3.34629e-06, No Iterations 1
DILUPBiCGStab:  Solving for Uz, Initial residual = 0.00689877, Final residual = 7.49737e-05, No Iterations 1
DILUPBiCGStab:  Solving for e, Initial residual = 0.000559856, Final residual = 1.67179e-05, No Iterations 1
DICPCG:  Solving for p_rgh, Initial residual = 0.183431, Final residual = 0.00181057, No Iterations 35
time step continuity errors : sum local = 0.0444193, global = -0.00163101, cumulative = 0.0546041
DILUPBiCGStab:  Solving for epsilon, Initial residual = 0.00154647, Final residual = 9.91133e-05, No Iterations 1
DILUPBiCGStab:  Solving for k, Initial residual = 0.00069462, Final residual = 5.0052e-05, No Iterations 1
ExecutionTime = 2.9 s  ClockTime = 3 s

Time = 15

DILUPBiCGStab:  Solving for Ux, Initial residual = 0.000281578, Final residual = 3.04987e-06, No Iterations 1
DILUPBiCGStab:  Solving for Uz, Initial residual = 0.00655086, Final residual = 7.19078e-05, No Iterations 1
DILUPBiCGStab:  Solving for e, Initial residual = 0.000505244, Final residual = 1.47593e-05, No Iterations 1
DICPCG:  Solving for p_rgh, Initial residual = 0.159275, Final residual = 0.00150768, No Iterations 110
time step continuity errors : sum local = 0.0342548, global = -0.00450385, cumulative = 0.0501003
DILUPBiCGStab:  Solving for epsilon, Initial residual = 0.00135687, Final residual = 8.94786e-05, No Iterations 1
DILUPBiCGStab:  Solving for k, Initial residual = 0.000583503, Final residual = 4.06131e-05, No Iterations 1
ExecutionTime = 3.02 s  ClockTime = 3 s

Time = 16

DILUPBiCGStab:  Solving for Ux, Initial residual = 0.000247896, Final residual = 2.58532e-06, No Iterations 1
DILUPBiCGStab:  Solving for Uz, Initial residual = 0.0061651, Final residual = 6.70476e-05, No Iterations 1
DILUPBiCGStab:  Solving for e, Initial residual = 0.000451074, Final residual = 1.29433e-05, No Iterations 1
DICPCG:  Solving for p_rgh, Initial residual = 0.13937, Final residual = 0.00127708, No Iterations 216
time step continuity errors : sum local = 0.0273772, global = -0.000808817, cumulative = 0.0492914
DILUPBiCGStab:  Solving for epsilon, Initial residual = 0.00119852, Final residual = 8.0551e-05, No Iterations 1
DILUPBiCGStab:  Solving for k, Initial residual = 0.000494563, Final residual = 3.35582e-05, No Iterations 1
ExecutionTime = 3.22 s  ClockTime = 3 s

Time = 17

DILUPBiCGStab:  Solving for Ux, Initial residual = 0.00022468, Final residual = 2.2554e-06, No Iterations 1
DILUPBiCGStab:  Solving for Uz, Initial residual = 0.00564953, Final residual = 6.02568e-05, No Iterations 1
DILUPBiCGStab:  Solving for e, Initial residual = 0.000403387, Final residual = 1.14077e-05, No Iterations 1
DICPCG:  Solving for p_rgh, Initial residual = 0.131153, Final residual = 0.00128694, No Iterations 105
time step continuity errors : sum local = 0.0263081, global = -0.00270398, cumulative = 0.0465875
DILUPBiCGStab:  Solving for epsilon, Initial residual = 0.00106066, Final residual = 7.21571e-05, No Iterations 1
DILUPBiCGStab:  Solving for k, Initial residual = 0.000423281, Final residual = 2.8215e-05, No Iterations 1
ExecutionTime = 3.34 s  ClockTime = 3 s

Time = 18

DILUPBiCGStab:  Solving for Ux, Initial residual = 0.000210952, Final residual = 2.07153e-06, No Iterations 1
DILUPBiCGStab:  Solving for Uz, Initial residual = 0.00526167, Final residual = 5.53841e-05, No Iterations 1
DILUPBiCGStab:  Solving for e, Initial residual = 0.000354424, Final residual = 9.86853e-06, No Iterations 1
DICPCG:  Solving for p_rgh, Initial residual = 0.127433, Final residual = 0.00121223, No Iterations 174
time step continuity errors : sum local = 0.0243068, global = -0.000138689, cumulative = 0.0464488
DILUPBiCGStab:  Solving for epsilon, Initial residual = 0.000937549, Final residual = 6.41651e-05, No Iterations 1
DILUPBiCGStab:  Solving for k, Initial residual = 0.000364482, Final residual = 2.39297e-05, No Iterations 1
ExecutionTime = 3.53 s  ClockTime = 3 s

Time = 19

DILUPBiCGStab:  Solving for Ux, Initial residual = 0.000198675, Final residual = 1.92166e-06, No Iterations 1
DILUPBiCGStab:  Solving for Uz, Initial residual = 0.00495713, Final residual = 5.1734e-05, No Iterations 1
DILUPBiCGStab:  Solving for e, Initial residual = 0.000329358, Final residual = 8.94286e-06, No Iterations 1
DICPCG:  Solving for p_rgh, Initial residual = 0.114936, Final residual = 0.00103664, No Iterations 174
time step continuity errors : sum local = 0.0200932, global = -2.34836e-05, cumulative = 0.0464253
DILUPBiCGStab:  Solving for epsilon, Initial residual = 0.000828073, Final residual = 5.69988e-05, No Iterations 1
DILUPBiCGStab:  Solving for k, Initial residual = 0.000316627, Final residual = 2.06442e-05, No Iterations 1
ExecutionTime = 3.69 s  ClockTime = 4 s

Time = 20

DILUPBiCGStab:  Solving for Ux, Initial residual = 0.000190728, Final residual = 1.82504e-06, No Iterations 1
DILUPBiCGStab:  Solving for Uz, Initial residual = 0.00476746, Final residual = 4.96428e-05, No Iterations 1
DILUPBiCGStab:  Solving for e, Initial residual = 0.000298576, Final residual = 8.10518e-06, No Iterations 1
DICPCG:  Solving for p_rgh, Initial residual = 0.112882, Final residual = 0.000912823, No Iterations 175
time step continuity errors : sum local = 0.0172831, global = 1.17052e-06, cumulative = 0.0464265
DILUPBiCGStab:  Solving for epsilon, Initial residual = 0.000740334, Final residual = 5.11907e-05, No Iterations 1
DILUPBiCGStab:  Solving for k, Initial residual = 0.000278374, Final residual = 1.80822e-05, No Iterations 1
ExecutionTime = 3.85 s  ClockTime = 4 s

Time = 21

DILUPBiCGStab:  Solving for Ux, Initial residual = 0.000184929, Final residual = 1.75045e-06, No Iterations 1
DILUPBiCGStab:  Solving for Uz, Initial residual = 0.00460274, Final residual = 4.72972e-05, No Iterations 1
DILUPBiCGStab:  Solving for e, Initial residual = 0.000282644, Final residual = 7.72934e-06, No Iterations 1
DICPCG:  Solving for p_rgh, Initial residual = 0.116931, Final residual = 0.000927633, No Iterations 175
time step continuity errors : sum local = 0.0173459, global = 4.26122e-06, cumulative = 0.0464307
DILUPBiCGStab:  Solving for epsilon, Initial residual = 0.000658809, Final residual = 4.54795e-05, No Iterations 1
DILUPBiCGStab:  Solving for k, Initial residual = 0.000247221, Final residual = 1.60097e-05, No Iterations 1
ExecutionTime = 4.01 s  ClockTime = 4 s

Time = 22

DILUPBiCGStab:  Solving for Ux, Initial residual = 0.000178915, Final residual = 1.67716e-06, No Iterations 1
DILUPBiCGStab:  Solving for Uz, Initial residual = 0.00443625, Final residual = 4.49721e-05, No Iterations 1
DILUPBiCGStab:  Solving for e, Initial residual = 0.000261317, Final residual = 7.46309e-06, No Iterations 1
DICPCG:  Solving for p_rgh, Initial residual = 0.107936, Final residual = 0.000985054, No Iterations 173
time step continuity errors : sum local = 0.0182921, global = -3.36459e-05, cumulative = 0.0463971
DILUPBiCGStab:  Solving for epsilon, Initial residual = 0.000590607, Final residual = 4.06709e-05, No Iterations 1
DILUPBiCGStab:  Solving for k, Initial residual = 0.00022425, Final residual = 1.4397e-05, No Iterations 1
ExecutionTime = 4.16 s  ClockTime = 4 s

Time = 23

DILUPBiCGStab:  Solving for Ux, Initial residual = 0.000172868, Final residual = 1.59878e-06, No Iterations 1
DILUPBiCGStab:  Solving for Uz, Initial residual = 0.0043078, Final residual = 4.29312e-05, No Iterations 1
DILUPBiCGStab:  Solving for e, Initial residual = 0.000249372, Final residual = 7.61519e-06, No Iterations 1
DICPCG:  Solving for p_rgh, Initial residual = 0.108766, Final residual = 0.00101447, No Iterations 164
time step continuity errors : sum local = 0.0185495, global = 4.43222e-05, cumulative = 0.0464414
DILUPBiCGStab:  Solving for epsilon, Initial residual = 0.000536939, Final residual = 3.65329e-05, No Iterations 1
DILUPBiCGStab:  Solving for k, Initial residual = 0.000207175, Final residual = 1.30846e-05, No Iterations 1
ExecutionTime = 4.35 s  ClockTime = 4 s

Time = 24

DILUPBiCGStab:  Solving for Ux, Initial residual = 0.000169249, Final residual = 1.54853e-06, No Iterations 1
DILUPBiCGStab:  Solving for Uz, Initial residual = 0.00421398, Final residual = 4.16459e-05, No Iterations 1
DILUPBiCGStab:  Solving for e, Initial residual = 0.00023051, Final residual = 7.67611e-06, No Iterations 1
DICPCG:  Solving for p_rgh, Initial residual = 0.10961, Final residual = 0.00106802, No Iterations 171
time step continuity errors : sum local = 0.0197321, global = 7.54379e-06, cumulative = 0.0464489
DILUPBiCGStab:  Solving for epsilon, Initial residual = 0.000486079, Final residual = 3.27853e-05, No Iterations 1
DILUPBiCGStab:  Solving for k, Initial residual = 0.000195638, Final residual = 1.22828e-05, No Iterations 1
ExecutionTime = 4.5 s  ClockTime = 4 s

Time = 25

DILUPBiCGStab:  Solving for Ux, Initial residual = 0.000161184, Final residual = 1.44864e-06, No Iterations 1
DILUPBiCGStab:  Solving for Uz, Initial residual = 0.00408752, Final residual = 3.98589e-05, No Iterations 1
DILUPBiCGStab:  Solving for e, Initial residual = 0.000206268, Final residual = 7.42662e-06, No Iterations 1
DICPCG:  Solving for p_rgh, Initial residual = 0.100531, Final residual = 0.00096795, No Iterations 78
time step continuity errors : sum local = 0.01784, global = -0.00245394, cumulative = 0.043995
DILUPBiCGStab:  Solving for epsilon, Initial residual = 0.000450868, Final residual = 3.02293e-05, No Iterations 1
DILUPBiCGStab:  Solving for k, Initial residual = 0.000188184, Final residual = 1.17487e-05, No Iterations 1
ExecutionTime = 4.61 s  ClockTime = 4 s

Time = 26

DILUPBiCGStab:  Solving for Ux, Initial residual = 0.000157015, Final residual = 1.3939e-06, No Iterations 1
DILUPBiCGStab:  Solving for Uz, Initial residual = 0.00398248, Final residual = 3.81505e-05, No Iterations 1
DILUPBiCGStab:  Solving for e, Initial residual = 0.000188941, Final residual = 7.28956e-06, No Iterations 1
DICPCG:  Solving for p_rgh, Initial residual = 0.102959, Final residual = 0.00100579, No Iterations 150
time step continuity errors : sum local = 0.0185505, global = -0.000108557, cumulative = 0.0438864
DILUPBiCGStab:  Solving for epsilon, Initial residual = 0.000424869, Final residual = 2.83849e-05, No Iterations 1
DILUPBiCGStab:  Solving for k, Initial residual = 0.000183656, Final residual = 1.16336e-05, No Iterations 1
ExecutionTime = 4.76 s  ClockTime = 5 s

Time = 27

DILUPBiCGStab:  Solving for Ux, Initial residual = 0.000154686, Final residual = 1.35745e-06, No Iterations 1
DILUPBiCGStab:  Solving for Uz, Initial residual = 0.00393473, Final residual = 3.72845e-05, No Iterations 1
DILUPBiCGStab:  Solving for e, Initial residual = 0.000173259, Final residual = 7.03839e-06, No Iterations 1
DICPCG:  Solving for p_rgh, Initial residual = 0.108004, Final residual = 0.00105972, No Iterations 39
time step continuity errors : sum local = 0.0195778, global = -9.30168e-05, cumulative = 0.0437934
DILUPBiCGStab:  Solving for epsilon, Initial residual = 0.00040805, Final residual = 2.75701e-05, No Iterations 1
DILUPBiCGStab:  Solving for k, Initial residual = 0.00018179, Final residual = 1.18211e-05, No Iterations 1
ExecutionTime = 4.84 s  ClockTime = 5 s

Time = 28

DILUPBiCGStab:  Solving for Ux, Initial residual = 0.000150379, Final residual = 1.29831e-06, No Iterations 1
DILUPBiCGStab:  Solving for Uz, Initial residual = 0.00383433, Final residual = 3.5775e-05, No Iterations 1
DILUPBiCGStab:  Solving for e, Initial residual = 0.000144778, Final residual = 6.07872e-06, No Iterations 1
DICPCG:  Solving for p_rgh, Initial residual = 0.1111, Final residual = 0.00110935, No Iterations 50
time step continuity errors : sum local = 0.0205535, global = 0.00268478, cumulative = 0.0464782
DILUPBiCGStab:  Solving for epsilon, Initial residual = 0.000389582, Final residual = 2.6376e-05, No Iterations 1
DILUPBiCGStab:  Solving for k, Initial residual = 0.000179764, Final residual = 1.16851e-05, No Iterations 1
ExecutionTime = 4.93 s  ClockTime = 5 s

Time = 29

DILUPBiCGStab:  Solving for Ux, Initial residual = 0.000146649, Final residual = 1.24e-06, No Iterations 1
DILUPBiCGStab:  Solving for Uz, Initial residual = 0.00372435, Final residual = 3.37535e-05, No Iterations 1
DILUPBiCGStab:  Solving for e, Initial residual = 0.000137539, Final residual = 5.42671e-06, No Iterations 1
DICPCG:  Solving for p_rgh, Initial residual = 0.110267, Final residual = 0.00101, No Iterations 157
time step continuity errors : sum local = 0.0185279, global = 0.00031637, cumulative = 0.0467946
DILUPBiCGStab:  Solving for epsilon, Initial residual = 0.000384606, Final residual = 2.62843e-05, No Iterations 1
DILUPBiCGStab:  Solving for k, Initial residual = 0.000178158, Final residual = 1.17129e-05, No Iterations 1
ExecutionTime = 5.08 s  ClockTime = 5 s

Time = 30

DILUPBiCGStab:  Solving for Ux, Initial residual = 0.000144129, Final residual = 1.20713e-06, No Iterations 1
DILUPBiCGStab:  Solving for Uz, Initial residual = 0.00371864, Final residual = 3.32254e-05, No Iterations 1
DILUPBiCGStab:  Solving for e, Initial residual = 0.000141952, Final residual = 5.44158e-06, No Iterations 1
DICPCG:  Solving for p_rgh, Initial residual = 0.124237, Final residual = 0.00116649, No Iterations 79
time step continuity errors : sum local = 0.0212855, global = 0.00195383, cumulative = 0.0487484
DILUPBiCGStab:  Solving for epsilon, Initial residual = 0.000391142, Final residual = 2.7213e-05, No Iterations 1
DILUPBiCGStab:  Solving for k, Initial residual = 0.000178377, Final residual = 1.2147e-05, No Iterations 1
ExecutionTime = 5.18 s  ClockTime = 5 s

Time = 31

DILUPBiCGStab:  Solving for Ux, Initial residual = 0.000141468, Final residual = 1.17697e-06, No Iterations 1
DILUPBiCGStab:  Solving for Uz, Initial residual = 0.00358606, Final residual = 3.14627e-05, No Iterations 1
DILUPBiCGStab:  Solving for e, Initial residual = 0.000147239, Final residual = 5.66437e-06, No Iterations 1
DICPCG:  Solving for p_rgh, Initial residual = 0.126957, Final residual = 0.00125012, No Iterations 156
time step continuity errors : sum local = 0.0228513, global = -9.52989e-05, cumulative = 0.0486531
DILUPBiCGStab:  Solving for epsilon, Initial residual = 0.000379941, Final residual = 2.65629e-05, No Iterations 1
DILUPBiCGStab:  Solving for k, Initial residual = 0.000177241, Final residual = 1.17838e-05, No Iterations 1
ExecutionTime = 5.33 s  ClockTime = 5 s

Time = 32

DILUPBiCGStab:  Solving for Ux, Initial residual = 0.000138348, Final residual = 1.13142e-06, No Iterations 1
DILUPBiCGStab:  Solving for Uz, Initial residual = 0.00358047, Final residual = 3.03901e-05, No Iterations 1
DILUPBiCGStab:  Solving for e, Initial residual = 0.000144516, Final residual = 5.47092e-06, No Iterations 1
DICPCG:  Solving for p_rgh, Initial residual = 0.126002, Final residual = 0.0011738, No Iterations 65
time step continuity errors : sum local = 0.0209821, global = 0.00215473, cumulative = 0.0508078
DILUPBiCGStab:  Solving for epsilon, Initial residual = 0.00036781, Final residual = 2.5966e-05, No Iterations 1
DILUPBiCGStab:  Solving for k, Initial residual = 0.000176077, Final residual = 1.18236e-05, No Iterations 1
ExecutionTime = 5.43 s  ClockTime = 5 s

Time = 33

DILUPBiCGStab:  Solving for Ux, Initial residual = 0.000136573, Final residual = 1.10637e-06, No Iterations 1
DILUPBiCGStab:  Solving for Uz, Initial residual = 0.00348258, Final residual = 2.90664e-05, No Iterations 1
DILUPBiCGStab:  Solving for e, Initial residual = 0.000146414, Final residual = 5.66962e-06, No Iterations 1
DICPCG:  Solving for p_rgh, Initial residual = 0.12061, Final residual = 0.00114684, No Iterations 157
time step continuity errors : sum local = 0.020127, global = -2.4839e-05, cumulative = 0.050783
DILUPBiCGStab:  Solving for epsilon, Initial residual = 0.000376497, Final residual = 2.69445e-05, No Iterations 1
DILUPBiCGStab:  Solving for k, Initial residual = 0.000173005, Final residual = 1.15158e-05, No Iterations 1
ExecutionTime = 5.6 s  ClockTime = 5 s

Time = 34

DILUPBiCGStab:  Solving for Ux, Initial residual = 0.000133565, Final residual = 1.06936e-06, No Iterations 1
DILUPBiCGStab:  Solving for Uz, Initial residual = 0.00338461, Final residual = 2.76918e-05, No Iterations 1
DILUPBiCGStab:  Solving for e, Initial residual = 0.00014582, Final residual = 5.79813e-06, No Iterations 1
DICPCG:  Solving for p_rgh, Initial residual = 0.113976, Final residual = 0.00113608, No Iterations 23
time step continuity errors : sum local = 0.0196412, global = 0.00177275, cumulative = 0.0525557
DILUPBiCGStab:  Solving for epsilon, Initial residual = 0.000375129, Final residual = 2.67215e-05, No Iterations 1
DILUPBiCGStab:  Solving for k, Initial residual = 0.000173823, Final residual = 1.17131e-05, No Iterations 1
ExecutionTime = 5.67 s  ClockTime = 6 s

Time = 35

DILUPBiCGStab:  Solving for Ux, Initial residual = 0.000131938, Final residual = 1.04381e-06, No Iterations 1
DILUPBiCGStab:  Solving for Uz, Initial residual = 0.00334024, Final residual = 2.65217e-05, No Iterations 1
DILUPBiCGStab:  Solving for e, Initial residual = 0.000144188, Final residual = 5.60433e-06, No Iterations 1
DICPCG:  Solving for p_rgh, Initial residual = 0.11912, Final residual = 0.00113563, No Iterations 158
time step continuity errors : sum local = 0.019415, global = -2.53714e-06, cumulative = 0.0525532
DILUPBiCGStab:  Solving for epsilon, Initial residual = 0.000372057, Final residual = 2.70367e-05, No Iterations 1
DILUPBiCGStab:  Solving for k, Initial residual = 0.000171886, Final residual = 1.14385e-05, No Iterations 1
ExecutionTime = 5.81 s  ClockTime = 6 s

Time = 36

DILUPBiCGStab:  Solving for Ux, Initial residual = 0.000129001, Final residual = 1.00822e-06, No Iterations 1
DILUPBiCGStab:  Solving for Uz, Initial residual = 0.00329769, Final residual = 2.57686e-05, No Iterations 1
DILUPBiCGStab:  Solving for e, Initial residual = 0.000141027, Final residual = 5.45525e-06, No Iterations 1
DICPCG:  Solving for p_rgh, Initial residual = 0.120927, Final residual = 0.00117422, No Iterations 165
time step continuity errors : sum local = 0.0199381, global = 0.000176795, cumulative = 0.05273
DILUPBiCGStab:  Solving for epsilon, Initial residual = 0.000364221, Final residual = 2.66758e-05, No Iterations 1
DILUPBiCGStab:  Solving for k, Initial residual = 0.000169043, Final residual = 1.13092e-05, No Iterations 1
ExecutionTime = 5.98 s  ClockTime = 6 s

Time = 37

DILUPBiCGStab:  Solving for Ux, Initial residual = 0.000126513, Final residual = 9.76303e-07, No Iterations 1
DILUPBiCGStab:  Solving for Uz, Initial residual = 0.00324776, Final residual = 2.47022e-05, No Iterations 1
DILUPBiCGStab:  Solving for e, Initial residual = 0.000138783, Final residual = 5.45017e-06, No Iterations 1
DICPCG:  Solving for p_rgh, Initial residual = 0.1139, Final residual = 0.00104884, No Iterations 152
time step continuity errors : sum local = 0.0175803, global = 3.38505e-05, cumulative = 0.0527638
DILUPBiCGStab:  Solving for epsilon, Initial residual = 0.000366863, Final residual = 2.6867e-05, No Iterations 1
DILUPBiCGStab:  Solving for k, Initial residual = 0.000167496, Final residual = 1.11849e-05, No Iterations 1
ExecutionTime = 6.13 s  ClockTime = 6 s

Time = 38

DILUPBiCGStab:  Solving for Ux, Initial residual = 0.000124876, Final residual = 9.50582e-07, No Iterations 1
DILUPBiCGStab:  Solving for Uz, Initial residual = 0.0031758, Final residual = 2.35961e-05, No Iterations 1
DILUPBiCGStab:  Solving for e, Initial residual = 0.000140177, Final residual = 5.38662e-06, No Iterations 1
DICPCG:  Solving for p_rgh, Initial residual = 0.112972, Final residual = 0.00101243, No Iterations 159
time step continuity errors : sum local = 0.0168801, global = 1.21279e-05, cumulative = 0.052776
DILUPBiCGStab:  Solving for epsilon, Initial residual = 0.000364007, Final residual = 2.69271e-05, No Iterations 1
DILUPBiCGStab:  Solving for k, Initial residual = 0.000167611, Final residual = 1.13939e-05, No Iterations 1
ExecutionTime = 6.29 s  ClockTime = 6 s

Time = 39

DILUPBiCGStab:  Solving for Ux, Initial residual = 0.000123757, Final residual = 9.40233e-07, No Iterations 1
DILUPBiCGStab:  Solving for Uz, Initial residual = 0.0031723, Final residual = 2.32799e-05, No Iterations 1
DILUPBiCGStab:  Solving for e, Initial residual = 0.000136532, Final residual = 5.1745e-06, No Iterations 1
DICPCG:  Solving for p_rgh, Initial residual = 0.125868, Final residual = 0.00121214, No Iterations 101
time step continuity errors : sum local = 0.0202181, global = 0.00267378, cumulative = 0.0554498
DILUPBiCGStab:  Solving for epsilon, Initial residual = 0.000358842, Final residual = 2.69152e-05, No Iterations 1
DILUPBiCGStab:  Solving for k, Initial residual = 0.000163823, Final residual = 1.10901e-05, No Iterations 1
ExecutionTime = 6.41 s  ClockTime = 6 s

Time = 40

DILUPBiCGStab:  Solving for Ux, Initial residual = 0.000122024, Final residual = 9.17081e-07, No Iterations 1
DILUPBiCGStab:  Solving for Uz, Initial residual = 0.00302722, Final residual = 2.1381e-05, No Iterations 1
DILUPBiCGStab:  Solving for e, Initial residual = 0.000136693, Final residual = 5.32985e-06, No Iterations 1
DICPCG:  Solving for p_rgh, Initial residual = 0.118707, Final residual = 0.00109497, No Iterations 167
time step continuity errors : sum local = 0.018034, global = 5.99386e-06, cumulative = 0.0554558
DILUPBiCGStab:  Solving for epsilon, Initial residual = 0.000349224, Final residual = 2.63079e-05, No Iterations 1
DILUPBiCGStab:  Solving for k, Initial residual = 0.00016099, Final residual = 1.08277e-05, No Iterations 1
ExecutionTime = 6.56 s  ClockTime = 6 s

Time = 41

DILUPBiCGStab:  Solving for Ux, Initial residual = 0.000119706, Final residual = 8.82459e-07, No Iterations 1
DILUPBiCGStab:  Solving for Uz, Initial residual = 0.00307193, Final residual = 2.13194e-05, No Iterations 1
DILUPBiCGStab:  Solving for e, Initial residual = 0.00013701, Final residual = 5.39073e-06, No Iterations 1
DICPCG:  Solving for p_rgh, Initial residual = 0.113033, Final residual = 0.00101019, No Iterations 160
time step continuity errors : sum local = 0.0165278, global = -4.39891e-05, cumulative = 0.0554118
DILUPBiCGStab:  Solving for epsilon, Initial residual = 0.000350222, Final residual = 2.6542e-05, No Iterations 1
DILUPBiCGStab:  Solving for k, Initial residual = 0.000161424, Final residual = 1.10506e-05, No Iterations 1
ExecutionTime = 6.73 s  ClockTime = 7 s

Time = 42

DILUPBiCGStab:  Solving for Ux, Initial residual = 0.000118194, Final residual = 8.60109e-07, No Iterations 1
DILUPBiCGStab:  Solving for Uz, Initial residual = 0.00306645, Final residual = 2.11616e-05, No Iterations 1
DILUPBiCGStab:  Solving for e, Initial residual = 0.000137727, Final residual = 5.00829e-06, No Iterations 1
DICPCG:  Solving for p_rgh, Initial residual = 0.116681, Final residual = 0.00112449, No Iterations 86
time step continuity errors : sum local = 0.0182796, global = 0.00171908, cumulative = 0.0571308
DILUPBiCGStab:  Solving for epsilon, Initial residual = 0.00035035, Final residual = 2.70658e-05, No Iterations 1
DILUPBiCGStab:  Solving for k, Initial residual = 0.000157863, Final residual = 1.0903e-05, No Iterations 1
ExecutionTime = 6.82 s  ClockTime = 7 s

Time = 43

DILUPBiCGStab:  Solving for Ux, Initial residual = 0.00011566, Final residual = 8.28532e-07, No Iterations 1
DILUPBiCGStab:  Solving for Uz, Initial residual = 0.00291249, Final residual = 1.9566e-05, No Iterations 1
DILUPBiCGStab:  Solving for e, Initial residual = 0.000132498, Final residual = 5.18599e-06, No Iterations 1
DICPCG:  Solving for p_rgh, Initial residual = 0.113953, Final residual = 0.0010365, No Iterations 167
time step continuity errors : sum local = 0.0166173, global = 4.60388e-05, cumulative = 0.0571769
DILUPBiCGStab:  Solving for epsilon, Initial residual = 0.000340998, Final residual = 2.63507e-05, No Iterations 1
DILUPBiCGStab:  Solving for k, Initial residual = 0.000154361, Final residual = 1.04808e-05, No Iterations 1
ExecutionTime = 7.01 s  ClockTime = 7 s

Time = 44

DILUPBiCGStab:  Solving for Ux, Initial residual = 0.000113942, Final residual = 8.05021e-07, No Iterations 1
DILUPBiCGStab:  Solving for Uz, Initial residual = 0.00291886, Final residual = 1.88689e-05, No Iterations 1
DILUPBiCGStab:  Solving for e, Initial residual = 0.00013165, Final residual = 5.3105e-06, No Iterations 1
DICPCG:  Solving for p_rgh, Initial residual = 0.102984, Final residual = 0.00091189, No Iterations 159
time step continuity errors : sum local = 0.0143757, global = 0.000238921, cumulative = 0.0574158
DILUPBiCGStab:  Solving for epsilon, Initial residual = 0.000329298, Final residual = 2.57896e-05, No Iterations 1
DILUPBiCGStab:  Solving for k, Initial residual = 0.000152039, Final residual = 1.0411e-05, No Iterations 1
ExecutionTime = 7.15 s  ClockTime = 7 s

Time = 45

DILUPBiCGStab:  Solving for Ux, Initial residual = 0.000113036, Final residual = 7.94483e-07, No Iterations 1
DILUPBiCGStab:  Solving for Uz, Initial residual = 0.00288485, Final residual = 1.85956e-05, No Iterations 1
DILUPBiCGStab:  Solving for e, Initial residual = 0.000130566, Final residual = 5.21335e-06, No Iterations 1
DICPCG:  Solving for p_rgh, Initial residual = 0.110568, Final residual = 0.00106606, No Iterations 81
time step continuity errors : sum local = 0.0168854, global = 0.00208993, cumulative = 0.0595057
DILUPBiCGStab:  Solving for epsilon, Initial residual = 0.000331971, Final residual = 2.60043e-05, No Iterations 1
DILUPBiCGStab:  Solving for k, Initial residual = 0.000152613, Final residual = 1.07425e-05, No Iterations 1
ExecutionTime = 7.25 s  ClockTime = 7 s

Time = 46

DILUPBiCGStab:  Solving for Ux, Initial residual = 0.000110928, Final residual = 7.61803e-07, No Iterations 1
DILUPBiCGStab:  Solving for Uz, Initial residual = 0.00283632, Final residual = 1.85384e-05, No Iterations 1
DILUPBiCGStab:  Solving for e, Initial residual = 0.000129605, Final residual = 4.88187e-06, No Iterations 1
DICPCG:  Solving for p_rgh, Initial residual = 0.118342, Final residual = 0.00115171, No Iterations 156
time step continuity errors : sum local = 0.0181124, global = 8.8573e-05, cumulative = 0.0595943
DILUPBiCGStab:  Solving for epsilon, Initial residual = 0.000328286, Final residual = 2.59301e-05, No Iterations 1
DILUPBiCGStab:  Solving for k, Initial residual = 0.000148914, Final residual = 1.02784e-05, No Iterations 1
ExecutionTime = 7.42 s  ClockTime = 7 s

Time = 47

DILUPBiCGStab:  Solving for Ux, Initial residual = 0.000110043, Final residual = 7.48555e-07, No Iterations 1
DILUPBiCGStab:  Solving for Uz, Initial residual = 0.0028594, Final residual = 1.76695e-05, No Iterations 1
DILUPBiCGStab:  Solving for e, Initial residual = 0.000124156, Final residual = 4.99691e-06, No Iterations 1
DICPCG:  Solving for p_rgh, Initial residual = 0.110129, Final residual = 0.000996434, No Iterations 159
time step continuity errors : sum local = 0.0156976, global = 0.000245183, cumulative = 0.0598395
DILUPBiCGStab:  Solving for epsilon, Initial residual = 0.000312255, Final residual = 2.49469e-05, No Iterations 1
DILUPBiCGStab:  Solving for k, Initial residual = 0.000143231, Final residual = 9.58128e-06, No Iterations 1
ExecutionTime = 7.56 s  ClockTime = 7 s

Time = 48

DILUPBiCGStab:  Solving for Ux, Initial residual = 0.000107794, Final residual = 7.17881e-07, No Iterations 1
DILUPBiCGStab:  Solving for Uz, Initial residual = 0.00275208, Final residual = 1.66189e-05, No Iterations 1
DILUPBiCGStab:  Solving for e, Initial residual = 0.000120736, Final residual = 5.14893e-06, No Iterations 1
DICPCG:  Solving for p_rgh, Initial residual = 0.0926721, Final residual = 0.000883906, No Iterations 165
time step continuity errors : sum local = 0.0135806, global = -6.81607e-06, cumulative = 0.0598327
DILUPBiCGStab:  Solving for epsilon, Initial residual = 0.000309275, Final residual = 2.45751e-05, No Iterations 1
DILUPBiCGStab:  Solving for k, Initial residual = 0.000143661, Final residual = 1.00889e-05, No Iterations 1
ExecutionTime = 7.74 s  ClockTime = 8 s

Time = 49

DILUPBiCGStab:  Solving for Ux, Initial residual = 0.00010645, Final residual = 7.03094e-07, No Iterations 1
DILUPBiCGStab:  Solving for Uz, Initial residual = 0.00273377, Final residual = 1.67577e-05, No Iterations 1
DILUPBiCGStab:  Solving for e, Initial residual = 0.000120146, Final residual = 5.01067e-06, No Iterations 1
DICPCG:  Solving for p_rgh, Initial residual = 0.108283, Final residual = 0.00096983, No Iterations 156
time step continuity errors : sum local = 0.014979, global = -2.42764e-05, cumulative = 0.0598084
DILUPBiCGStab:  Solving for epsilon, Initial residual = 0.000310594, Final residual = 2.51321e-05, No Iterations 1
DILUPBiCGStab:  Solving for k, Initial residual = 0.000142884, Final residual = 1.02185e-05, No Iterations 1
ExecutionTime = 7.88 s  ClockTime = 8 s

Time = 50

DILUPBiCGStab:  Solving for Ux, Initial residual = 0.000105607, Final residual = 6.87937e-07, No Iterations 1
DILUPBiCGStab:  Solving for Uz, Initial residual = 0.00271131, Final residual = 1.616e-05, No Iterations 1
DILUPBiCGStab:  Solving for e, Initial residual = 0.000118507, Final residual = 4.82887e-06, No Iterations 1
DICPCG:  Solving for p_rgh, Initial residual = 0.107548, Final residual = 0.00102439, No Iterations 154
time step continuity errors : sum local = 0.0157801, global = -3.16968e-05, cumulative = 0.0597767
DILUPBiCGStab:  Solving for epsilon, Initial residual = 0.000302457, Final residual = 2.46494e-05, No Iterations 1
DILUPBiCGStab:  Solving for k, Initial residual = 0.000138998, Final residual = 9.67935e-06, No Iterations 1
ExecutionTime = 8.03 s  ClockTime = 8 s

Time = 51

DILUPBiCGStab:  Solving for Ux, Initial residual = 0.000104836, Final residual = 6.7759e-07, No Iterations 1
DILUPBiCGStab:  Solving for Uz, Initial residual = 0.00266535, Final residual = 1.56726e-05, No Iterations 1
DILUPBiCGStab:  Solving for e, Initial residual = 0.00011564, Final residual = 4.78801e-06, No Iterations 1
DICPCG:  Solving for p_rgh, Initial residual = 0.105362, Final residual = 0.00105033, No Iterations 150
time step continuity errors : sum local = 0.0160887, global = 6.50356e-05, cumulative = 0.0598417
DILUPBiCGStab:  Solving for epsilon, Initial residual = 0.000295337, Final residual = 2.41472e-05, No Iterations 1
DILUPBiCGStab:  Solving for k, Initial residual = 0.000136356, Final residual = 9.48114e-06, No Iterations 1
ExecutionTime = 8.18 s  ClockTime = 8 s

Time = 52

DILUPBiCGStab:  Solving for Ux, Initial residual = 0.000102853, Final residual = 6.46624e-07, No Iterations 1
DILUPBiCGStab:  Solving for Uz, Initial residual = 0.00264156, Final residual = 1.52037e-05, No Iterations 1
DILUPBiCGStab:  Solving for e, Initial residual = 0.000111129, Final residual = 4.88687e-06, No Iterations 1
DICPCG:  Solving for p_rgh, Initial residual = 0.0923217, Final residual = 0.000869022, No Iterations 149
time step continuity errors : sum local = 0.0132684, global = 2.95152e-05, cumulative = 0.0598712
DILUPBiCGStab:  Solving for epsilon, Initial residual = 0.000292008, Final residual = 2.40469e-05, No Iterations 1
DILUPBiCGStab:  Solving for k, Initial residual = 0.000134821, Final residual = 9.50216e-06, No Iterations 1
ExecutionTime = 8.33 s  ClockTime = 8 s

Time = 53

DILUPBiCGStab:  Solving for Ux, Initial residual = 0.000102598, Final residual = 6.47999e-07, No Iterations 1
DILUPBiCGStab:  Solving for Uz, Initial residual = 0.00260136, Final residual = 1.45973e-05, No Iterations 1
DILUPBiCGStab:  Solving for e, Initial residual = 0.000110485, Final residual = 4.83611e-06, No Iterations 1
DICPCG:  Solving for p_rgh, Initial residual = 0.0988448, Final residual = 0.000903217, No Iterations 151
time step continuity errors : sum local = 0.0135889, global = 7.61551e-05, cumulative = 0.0599474
DILUPBiCGStab:  Solving for epsilon, Initial residual = 0.000281881, Final residual = 2.33734e-05, No Iterations 1
DILUPBiCGStab:  Solving for k, Initial residual = 0.00013137, Final residual = 9.23145e-06, No Iterations 1
ExecutionTime = 8.5 s  ClockTime = 8 s

Time = 54

DILUPBiCGStab:  Solving for Ux, Initial residual = 0.000100832, Final residual = 6.16986e-07, No Iterations 1
DILUPBiCGStab:  Solving for Uz, Initial residual = 0.00261471, Final residual = 1.53467e-05, No Iterations 1
DILUPBiCGStab:  Solving for e, Initial residual = 0.000107541, Final residual = 4.81819e-06, No Iterations 1
DICPCG:  Solving for p_rgh, Initial residual = 0.0986059, Final residual = 0.000896526, No Iterations 160
time step continuity errors : sum local = 0.0134901, global = 7.95081e-05, cumulative = 0.0600269
DILUPBiCGStab:  Solving for epsilon, Initial residual = 0.000289328, Final residual = 2.42694e-05, No Iterations 1
DILUPBiCGStab:  Solving for k, Initial residual = 0.000131415, Final residual = 9.68111e-06, No Iterations 1
ExecutionTime = 8.65 s  ClockTime = 9 s

Time = 55

DILUPBiCGStab:  Solving for Ux, Initial residual = 9.95744e-05, Final residual = 6.02218e-07, No Iterations 1
DILUPBiCGStab:  Solving for Uz, Initial residual = 0.00256937, Final residual = 1.55502e-05, No Iterations 1
DILUPBiCGStab:  Solving for e, Initial residual = 0.00010718, Final residual = 4.67459e-06, No Iterations 1
DICPCG:  Solving for p_rgh, Initial residual = 0.105791, Final residual = 0.000985084, No Iterations 150
time step continuity errors : sum local = 0.0149414, global = 0.000161619, cumulative = 0.0601885
DILUPBiCGStab:  Solving for epsilon, Initial residual = 0.000289386, Final residual = 2.44697e-05, No Iterations 1
DILUPBiCGStab:  Solving for k, Initial residual = 0.000130439, Final residual = 9.91327e-06, No Iterations 1
ExecutionTime = 8.79 s  ClockTime = 9 s

Time = 56

DILUPBiCGStab:  Solving for Ux, Initial residual = 9.86768e-05, Final residual = 5.89108e-07, No Iterations 1
DILUPBiCGStab:  Solving for Uz, Initial residual = 0.00261091, Final residual = 1.55755e-05, No Iterations 1
DILUPBiCGStab:  Solving for e, Initial residual = 0.000104262, Final residual = 4.6119e-06, No Iterations 1
DICPCG:  Solving for p_rgh, Initial residual = 0.105479, Final residual = 0.000951142, No Iterations 150
time step continuity errors : sum local = 0.014378, global = 3.99988e-05, cumulative = 0.0602285
DILUPBiCGStab:  Solving for epsilon, Initial residual = 0.000275845, Final residual = 2.3347e-05, No Iterations 1
DILUPBiCGStab:  Solving for k, Initial residual = 0.000126955, Final residual = 9.40804e-06, No Iterations 1
ExecutionTime = 8.94 s  ClockTime = 9 s

Time = 57

DILUPBiCGStab:  Solving for Ux, Initial residual = 9.70602e-05, Final residual = 5.68202e-07, No Iterations 1
DILUPBiCGStab:  Solving for Uz, Initial residual = 0.0025298, Final residual = 1.49862e-05, No Iterations 1
DILUPBiCGStab:  Solving for e, Initial residual = 0.000101302, Final residual = 4.63391e-06, No Iterations 1
DICPCG:  Solving for p_rgh, Initial residual = 0.0992063, Final residual = 0.000955785, No Iterations 34
time step continuity errors : sum local = 0.0143879, global = 0.00223606, cumulative = 0.0624646
DILUPBiCGStab:  Solving for epsilon, Initial residual = 0.000285426, Final residual = 2.47265e-05, No Iterations 1
DILUPBiCGStab:  Solving for k, Initial residual = 0.00012803, Final residual = 1.03298e-05, No Iterations 1
ExecutionTime = 9.02 s  ClockTime = 9 s

Time = 58

DILUPBiCGStab:  Solving for Ux, Initial residual = 9.73231e-05, Final residual = 5.69042e-07, No Iterations 1
DILUPBiCGStab:  Solving for Uz, Initial residual = 0.00252548, Final residual = 1.57332e-05, No Iterations 1
DILUPBiCGStab:  Solving for e, Initial residual = 9.99974e-05, Final residual = 4.58894e-06, No Iterations 1
DICPCG:  Solving for p_rgh, Initial residual = 0.112319, Final residual = 0.00110837, No Iterations 147
time step continuity errors : sum local = 0.0167533, global = 4.45743e-05, cumulative = 0.0625092
DILUPBiCGStab:  Solving for epsilon, Initial residual = 0.000280835, Final residual = 2.43996e-05, No Iterations 1
DILUPBiCGStab:  Solving for k, Initial residual = 0.000122772, Final residual = 9.2467e-06, No Iterations 1
ExecutionTime = 9.16 s  ClockTime = 9 s

Time = 59

DILUPBiCGStab:  Solving for Ux, Initial residual = 9.5888e-05, Final residual = 5.50844e-07, No Iterations 1
DILUPBiCGStab:  Solving for Uz, Initial residual = 0.00254527, Final residual = 1.4868e-05, No Iterations 1
DILUPBiCGStab:  Solving for e, Initial residual = 9.62749e-05, Final residual = 4.60317e-06, No Iterations 1
DICPCG:  Solving for p_rgh, Initial residual = 0.0974803, Final residual = 0.000933336, No Iterations 161
time step continuity errors : sum local = 0.0140276, global = 0.000195485, cumulative = 0.0627047
DILUPBiCGStab:  Solving for epsilon, Initial residual = 0.000278781, Final residual = 2.51345e-05, No Iterations 1
DILUPBiCGStab:  Solving for k, Initial residual = 0.000123312, Final residual = 1.05953e-05, No Iterations 1
ExecutionTime = 9.31 s  ClockTime = 9 s

Time = 60

DILUPBiCGStab:  Solving for Ux, Initial residual = 9.44792e-05, Final residual = 5.27035e-07, No Iterations 1
DILUPBiCGStab:  Solving for Uz, Initial residual = 0.00248011, Final residual = 1.51565e-05, No Iterations 1
DILUPBiCGStab:  Solving for e, Initial residual = 9.51536e-05, Final residual = 4.58652e-06, No Iterations 1
DICPCG:  Solving for p_rgh, Initial residual = 0.0973036, Final residual = 0.000968369, No Iterations 43
time step continuity errors : sum local = 0.0143459, global = 0.00152232, cumulative = 0.064227
DILUPBiCGStab:  Solving for epsilon, Initial residual = 0.000352255, Final residual = 3.22039e-05, No Iterations 1
DILUPBiCGStab:  Solving for k, Initial residual = 0.000127668, Final residual = 1.26818e-05, No Iterations 1
ExecutionTime = 9.38 s  ClockTime = 9 s

Time = 61

DILUPBiCGStab:  Solving for Ux, Initial residual = 9.34098e-05, Final residual = 5.09334e-07, No Iterations 1
DILUPBiCGStab:  Solving for Uz, Initial residual = 0.00250203, Final residual = 1.70761e-05, No Iterations 1
DILUPBiCGStab:  Solving for e, Initial residual = 9.35719e-05, Final residual = 4.5225e-06, No Iterations 1
DICPCG:  Solving for p_rgh, Initial residual = 0.11309, Final residual = 0.0010712, No Iterations 151
time step continuity errors : sum local = 0.0160989, global = 4.96524e-05, cumulative = 0.0642766
DILUPBiCGStab:  Solving for epsilon, Initial residual = 0.000361736, Final residual = 3.02774e-05, No Iterations 1
DILUPBiCGStab:  Solving for k, Initial residual = 0.00012847, Final residual = 1.28178e-05, No Iterations 1
ExecutionTime = 9.54 s  ClockTime = 9 s

Time = 62

DILUPBiCGStab:  Solving for Ux, Initial residual = 9.23735e-05, Final residual = 5.0888e-07, No Iterations 1
DILUPBiCGStab:  Solving for Uz, Initial residual = 0.00253157, Final residual = 1.72365e-05, No Iterations 1
DILUPBiCGStab:  Solving for e, Initial residual = 9.32392e-05, Final residual = 4.41253e-06, No Iterations 1
DICPCG:  Solving for p_rgh, Initial residual = 0.112721, Final residual = 0.00112257, No Iterations 79
time step continuity errors : sum local = 0.0167476, global = 0.00179421, cumulative = 0.0660708
DILUPBiCGStab:  Solving for epsilon, Initial residual = 0.00027386, Final residual = 2.40986e-05, No Iterations 1
DILUPBiCGStab:  Solving for k, Initial residual = 0.000128827, Final residual = 1.54989e-06, No Iterations 1
ExecutionTime = 9.64 s  ClockTime = 10 s

Time = 63

DILUPBiCGStab:  Solving for Ux, Initial residual = 9.28863e-05, Final residual = 5.04051e-07, No Iterations 1
DILUPBiCGStab:  Solving for Uz, Initial residual = 0.00239081, Final residual = 1.44134e-05, No Iterations 1
DILUPBiCGStab:  Solving for e, Initial residual = 9.16954e-05, Final residual = 4.36333e-06, No Iterations 1
DICPCG:  Solving for p_rgh, Initial residual = 0.0986497, Final residual = 0.000945891, No Iterations 151
time step continuity errors : sum local = 0.0141635, global = 0.000120525, cumulative = 0.0661914
DILUPBiCGStab:  Solving for epsilon, Initial residual = 0.000293327, Final residual = 2.75041e-05, No Iterations 1
DILUPBiCGStab:  Solving for k, Initial residual = 0.000126009, Final residual = 1.25338e-05, No Iterations 1
ExecutionTime = 9.82 s  ClockTime = 10 s

Time = 64

DILUPBiCGStab:  Solving for Ux, Initial residual = 9.10466e-05, Final residual = 4.88229e-07, No Iterations 1
DILUPBiCGStab:  Solving for Uz, Initial residual = 0.0024967, Final residual = 1.62134e-05, No Iterations 1
DILUPBiCGStab:  Solving for e, Initial residual = 8.91172e-05, Final residual = 4.36475e-06, No Iterations 1
DICPCG:  Solving for p_rgh, Initial residual = 0.113878, Final residual = 0.00110292, No Iterations 91
time step continuity errors : sum local = 0.0166034, global = 0.00179292, cumulative = 0.0679843
DILUPBiCGStab:  Solving for epsilon, Initial residual = 0.000368181, Final residual = 3.32875e-05, No Iterations 1
DILUPBiCGStab:  Solving for k, Initial residual = 0.000124427, Final residual = 1.23672e-05, No Iterations 1
ExecutionTime = 9.92 s  ClockTime = 10 s

Time = 65

DILUPBiCGStab:  Solving for Ux, Initial residual = 9.0892e-05, Final residual = 4.82831e-07, No Iterations 1
DILUPBiCGStab:  Solving for Uz, Initial residual = 0.00239005, Final residual = 1.64352e-05, No Iterations 1
DILUPBiCGStab:  Solving for e, Initial residual = 8.78049e-05, Final residual = 4.31509e-06, No Iterations 1
DICPCG:  Solving for p_rgh, Initial residual = 0.118156, Final residual = 0.00111993, No Iterations 161
time step continuity errors : sum local = 0.0167483, global = -1.54751e-05, cumulative = 0.0679688
DILUPBiCGStab:  Solving for epsilon, Initial residual = 0.00034326, Final residual = 2.88045e-05, No Iterations 1
DILUPBiCGStab:  Solving for k, Initial residual = 0.000125091, Final residual = 1.23524e-05, No Iterations 1
ExecutionTime = 10.07 s  ClockTime = 10 s

Time = 66

DILUPBiCGStab:  Solving for Ux, Initial residual = 9.01092e-05, Final residual = 4.76439e-07, No Iterations 1
DILUPBiCGStab:  Solving for Uz, Initial residual = 0.00247112, Final residual = 1.6464e-05, No Iterations 1
DILUPBiCGStab:  Solving for e, Initial residual = 8.73958e-05, Final residual = 4.27358e-06, No Iterations 1
DICPCG:  Solving for p_rgh, Initial residual = 0.107478, Final residual = 0.00103054, No Iterations 23
time step continuity errors : sum local = 0.0153464, global = 0.00150012, cumulative = 0.0694689
DILUPBiCGStab:  Solving for epsilon, Initial residual = 0.000284009, Final residual = 2.62745e-05, No Iterations 1
DILUPBiCGStab:  Solving for k, Initial residual = 0.000123465, Final residual = 1.53137e-06, No Iterations 1
ExecutionTime = 10.15 s  ClockTime = 10 s

Time = 67

DILUPBiCGStab:  Solving for Ux, Initial residual = 8.85678e-05, Final residual = 4.53156e-07, No Iterations 1
DILUPBiCGStab:  Solving for Uz, Initial residual = 0.00242775, Final residual = 1.52762e-05, No Iterations 1
DILUPBiCGStab:  Solving for e, Initial residual = 8.45331e-05, Final residual = 4.28446e-06, No Iterations 1
DICPCG:  Solving for p_rgh, Initial residual = 0.0984746, Final residual = 0.000947767, No Iterations 145
time step continuity errors : sum local = 0.0138596, global = 4.22529e-05, cumulative = 0.0695112
DILUPBiCGStab:  Solving for epsilon, Initial residual = 0.000337803, Final residual = 3.1619e-05, No Iterations 1
DILUPBiCGStab:  Solving for k, Initial residual = 0.000117992, Final residual = 1.12604e-05, No Iterations 1
ExecutionTime = 10.28 s  ClockTime = 10 s

Time = 68

DILUPBiCGStab:  Solving for Ux, Initial residual = 8.81922e-05, Final residual = 4.4621e-07, No Iterations 1
DILUPBiCGStab:  Solving for Uz, Initial residual = 0.00237847, Final residual = 1.62171e-05, No Iterations 1
DILUPBiCGStab:  Solving for e, Initial residual = 8.2561e-05, Final residual = 4.26547e-06, No Iterations 1
DICPCG:  Solving for p_rgh, Initial residual = 0.101752, Final residual = 0.00100189, No Iterations 29
time step continuity errors : sum local = 0.0143968, global = 0.00205194, cumulative = 0.0715631
DILUPBiCGStab:  Solving for epsilon, Initial residual = 0.000323562, Final residual = 2.82479e-05, No Iterations 1
DILUPBiCGStab:  Solving for k, Initial residual = 0.000118812, Final residual = 1.12966e-05, No Iterations 1
ExecutionTime = 10.36 s  ClockTime = 10 s

Time = 69

DILUPBiCGStab:  Solving for Ux, Initial residual = 8.74079e-05, Final residual = 4.38618e-07, No Iterations 1
DILUPBiCGStab:  Solving for Uz, Initial residual = 0.00232859, Final residual = 1.52323e-05, No Iterations 1
DILUPBiCGStab:  Solving for e, Initial residual = 8.13286e-05, Final residual = 4.23052e-06, No Iterations 1
DICPCG:  Solving for p_rgh, Initial residual = 0.093406, Final residual = 0.00087951, No Iterations 147
time step continuity errors : sum local = 0.0125968, global = 5.94263e-05, cumulative = 0.0716225
DILUPBiCGStab:  Solving for epsilon, Initial residual = 0.000282124, Final residual = 2.64241e-05, No Iterations 1
DILUPBiCGStab:  Solving for k, Initial residual = 0.000118123, Final residual = 1.47592e-06, No Iterations 1
ExecutionTime = 10.5 s  ClockTime = 10 s

Time = 70

DILUPBiCGStab:  Solving for Ux, Initial residual = 8.66311e-05, Final residual = 4.20669e-07, No Iterations 1
DILUPBiCGStab:  Solving for Uz, Initial residual = 0.00231575, Final residual = 1.49876e-05, No Iterations 1
DILUPBiCGStab:  Solving for e, Initial residual = 8.06044e-05, Final residual = 4.18766e-06, No Iterations 1
DICPCG:  Solving for p_rgh, Initial residual = 0.090362, Final residual = 0.000898938, No Iterations 24
time step continuity errors : sum local = 0.0127043, global = 0.00203669, cumulative = 0.0736592
DILUPBiCGStab:  Solving for epsilon, Initial residual = 0.00032959, Final residual = 3.07304e-05, No Iterations 1
DILUPBiCGStab:  Solving for k, Initial residual = 0.0001131, Final residual = 1.10112e-05, No Iterations 1
ExecutionTime = 10.57 s  ClockTime = 10 s

Time = 71

DILUPBiCGStab:  Solving for Ux, Initial residual = 8.59101e-05, Final residual = 4.09666e-07, No Iterations 1
DILUPBiCGStab:  Solving for Uz, Initial residual = 0.00231262, Final residual = 1.55376e-05, No Iterations 1
DILUPBiCGStab:  Solving for e, Initial residual = 7.91785e-05, Final residual = 4.16781e-06, No Iterations 1
DICPCG:  Solving for p_rgh, Initial residual = 0.0887265, Final residual = 0.000800996, No Iterations 157
time step continuity errors : sum local = 0.0112071, global = 0.00014125, cumulative = 0.0738005
DILUPBiCGStab:  Solving for epsilon, Initial residual = 0.000320665, Final residual = 2.76086e-05, No Iterations 1
DILUPBiCGStab:  Solving for k, Initial residual = 0.000115081, Final residual = 1.11752e-05, No Iterations 1
ExecutionTime = 10.73 s  ClockTime = 11 s

Time = 72

DILUPBiCGStab:  Solving for Ux, Initial residual = 8.53656e-05, Final residual = 4.11592e-07, No Iterations 1
DILUPBiCGStab:  Solving for Uz, Initial residual = 0.00236085, Final residual = 1.60646e-05, No Iterations 1
DILUPBiCGStab:  Solving for e, Initial residual = 7.8782e-05, Final residual = 4.10766e-06, No Iterations 1
DICPCG:  Solving for p_rgh, Initial residual = 0.0947345, Final residual = 0.000933308, No Iterations 60
time step continuity errors : sum local = 0.0130637, global = 0.000886169, cumulative = 0.0746867
DILUPBiCGStab:  Solving for epsilon, Initial residual = 0.000283969, Final residual = 2.65546e-05, No Iterations 1
DILUPBiCGStab:  Solving for k, Initial residual = 0.000113995, Final residual = 1.42443e-06, No Iterations 1
ExecutionTime = 10.81 s  ClockTime = 11 s

Time = 73

DILUPBiCGStab:  Solving for Ux, Initial residual = 8.49109e-05, Final residual = 3.95837e-07, No Iterations 1
DILUPBiCGStab:  Solving for Uz, Initial residual = 0.00227896, Final residual = 1.49372e-05, No Iterations 1
DILUPBiCGStab:  Solving for e, Initial residual = 7.79986e-05, Final residual = 4.07274e-06, No Iterations 1
DICPCG:  Solving for p_rgh, Initial residual = 0.0834023, Final residual = 0.000756733, No Iterations 146
time step continuity errors : sum local = 0.0105302, global = 0.000138008, cumulative = 0.0748247
DILUPBiCGStab:  Solving for epsilon, Initial residual = 0.000321541, Final residual = 3.02563e-05, No Iterations 1
DILUPBiCGStab:  Solving for k, Initial residual = 0.000110145, Final residual = 1.0964e-05, No Iterations 1
ExecutionTime = 10.98 s  ClockTime = 11 s

Time = 74

DILUPBiCGStab:  Solving for Ux, Initial residual = 8.37525e-05, Final residual = 3.87816e-07, No Iterations 1
DILUPBiCGStab:  Solving for Uz, Initial residual = 0.0022274, Final residual = 1.48754e-05, No Iterations 1
DILUPBiCGStab:  Solving for e, Initial residual = 7.62236e-05, Final residual = 4.06285e-06, No Iterations 1
DICPCG:  Solving for p_rgh, Initial residual = 0.0849188, Final residual = 0.000803748, No Iterations 33
time step continuity errors : sum local = 0.0111351, global = 0.00154111, cumulative = 0.0763658
DILUPBiCGStab:  Solving for epsilon, Initial residual = 0.000328488, Final residual = 2.87481e-05, No Iterations 1
DILUPBiCGStab:  Solving for k, Initial residual = 0.000108524, Final residual = 1.02489e-05, No Iterations 1
ExecutionTime = 11.05 s  ClockTime = 11 s

Time = 75

DILUPBiCGStab:  Solving for Ux, Initial residual = 8.30417e-05, Final residual = 3.75133e-07, No Iterations 1
DILUPBiCGStab:  Solving for Uz, Initial residual = 0.00221447, Final residual = 1.5224e-05, No Iterations 1
DILUPBiCGStab:  Solving for e, Initial residual = 7.49748e-05, Final residual = 4.03005e-06, No Iterations 1
DICPCG:  Solving for p_rgh, Initial residual = 0.0840938, Final residual = 0.000814868, No Iterations 148
time step continuity errors : sum local = 0.0112526, global = 0.000174839, cumulative = 0.0765406
DILUPBiCGStab:  Solving for epsilon, Initial residual = 0.000295862, Final residual = 2.72491e-05, No Iterations 1
DILUPBiCGStab:  Solving for k, Initial residual = 0.000108725, Final residual = 1.3284e-06, No Iterations 1
ExecutionTime = 11.19 s  ClockTime = 11 s

Time = 76

DILUPBiCGStab:  Solving for Ux, Initial residual = 8.36569e-05, Final residual = 3.81771e-07, No Iterations 1
DILUPBiCGStab:  Solving for Uz, Initial residual = 0.00230573, Final residual = 1.55393e-05, No Iterations 1
DILUPBiCGStab:  Solving for e, Initial residual = 7.38946e-05, Final residual = 4.00071e-06, No Iterations 1
DICPCG:  Solving for p_rgh, Initial residual = 0.0857563, Final residual = 0.000834225, No Iterations 66
time step continuity errors : sum local = 0.0114703, global = 0.00106865, cumulative = 0.0776093
DILUPBiCGStab:  Solving for epsilon, Initial residual = 0.000312955, Final residual = 2.86582e-05, No Iterations 1
DILUPBiCGStab:  Solving for k, Initial residual = 0.000106437, Final residual = 1.2681e-06, No Iterations 1
ExecutionTime = 11.29 s  ClockTime = 11 s

Time = 77

DILUPBiCGStab:  Solving for Ux, Initial residual = 8.25238e-05, Final residual = 3.63294e-07, No Iterations 1
DILUPBiCGStab:  Solving for Uz, Initial residual = 0.00221289, Final residual = 1.5381e-05, No Iterations 1
DILUPBiCGStab:  Solving for e, Initial residual = 7.32763e-05, Final residual = 3.96196e-06, No Iterations 1
DICPCG:  Solving for p_rgh, Initial residual = 0.0834773, Final residual = 0.000814595, No Iterations 33
time step continuity errors : sum local = 0.0111231, global = 0.00247455, cumulative = 0.0800838
DILUPBiCGStab:  Solving for epsilon, Initial residual = 0.000317044, Final residual = 2.81123e-05, No Iterations 1
DILUPBiCGStab:  Solving for k, Initial residual = 0.000105965, Final residual = 1.29948e-06, No Iterations 1
ExecutionTime = 11.36 s  ClockTime = 11 s

Time = 78

DILUPBiCGStab:  Solving for Ux, Initial residual = 8.20817e-05, Final residual = 3.55061e-07, No Iterations 1
DILUPBiCGStab:  Solving for Uz, Initial residual = 0.00221671, Final residual = 1.66768e-05, No Iterations 1
DILUPBiCGStab:  Solving for e, Initial residual = 7.27354e-05, Final residual = 3.93862e-06, No Iterations 1
DICPCG:  Solving for p_rgh, Initial residual = 0.0886585, Final residual = 0.000811173, No Iterations 145
time step continuity errors : sum local = 0.011141, global = 1.16014e-05, cumulative = 0.0800954
DILUPBiCGStab:  Solving for epsilon, Initial residual = 0.000337663, Final residual = 3.00647e-05, No Iterations 1
DILUPBiCGStab:  Solving for k, Initial residual = 0.000105474, Final residual = 1.26819e-06, No Iterations 1
ExecutionTime = 11.53 s  ClockTime = 11 s

Time = 79

DILUPBiCGStab:  Solving for Ux, Initial residual = 8.15129e-05, Final residual = 3.55777e-07, No Iterations 1
DILUPBiCGStab:  Solving for Uz, Initial residual = 0.00224827, Final residual = 1.63489e-05, No Iterations 1
DILUPBiCGStab:  Solving for e, Initial residual = 7.18171e-05, Final residual = 3.90978e-06, No Iterations 1
DICPCG:  Solving for p_rgh, Initial residual = 0.0876072, Final residual = 0.000871418, No Iterations 21
time step continuity errors : sum local = 0.011908, global = 0.00121647, cumulative = 0.0813119
DILUPBiCGStab:  Solving for epsilon, Initial residual = 0.000335871, Final residual = 2.92017e-05, No Iterations 1
DILUPBiCGStab:  Solving for k, Initial residual = 0.00010384, Final residual = 1.03325e-05, No Iterations 1
ExecutionTime = 11.59 s  ClockTime = 11 s

Time = 80

DILUPBiCGStab:  Solving for Ux, Initial residual = 8.09947e-05, Final residual = 3.43464e-07, No Iterations 1
DILUPBiCGStab:  Solving for Uz, Initial residual = 0.00222676, Final residual = 1.61161e-05, No Iterations 1
DILUPBiCGStab:  Solving for e, Initial residual = 7.08503e-05, Final residual = 3.85677e-06, No Iterations 1
DICPCG:  Solving for p_rgh, Initial residual = 0.0842928, Final residual = 0.00082883, No Iterations 92
time step continuity errors : sum local = 0.0111323, global = 0.00133751, cumulative = 0.0826494
DILUPBiCGStab:  Solving for epsilon, Initial residual = 0.000332495, Final residual = 2.92564e-05, No Iterations 1
DILUPBiCGStab:  Solving for k, Initial residual = 0.000102988, Final residual = 1.24215e-06, No Iterations 1
ExecutionTime = 11.7 s  ClockTime = 12 s

Time = 81

DILUPBiCGStab:  Solving for Ux, Initial residual = 8.09058e-05, Final residual = 3.40385e-07, No Iterations 1
DILUPBiCGStab:  Solving for Uz, Initial residual = 0.00213354, Final residual = 1.51859e-05, No Iterations 1
DILUPBiCGStab:  Solving for e, Initial residual = 7.00654e-05, Final residual = 3.8161e-06, No Iterations 1
DICPCG:  Solving for p_rgh, Initial residual = 0.0834682, Final residual = 0.000697002, No Iterations 146
time step continuity errors : sum local = 0.00933904, global = 8.6355e-06, cumulative = 0.082658
DILUPBiCGStab:  Solving for epsilon, Initial residual = 0.000333359, Final residual = 2.84148e-05, No Iterations 1
DILUPBiCGStab:  Solving for k, Initial residual = 0.000104045, Final residual = 1.26687e-06, No Iterations 1
ExecutionTime = 11.85 s  ClockTime = 12 s

Time = 82

DILUPBiCGStab:  Solving for Ux, Initial residual = 8.03625e-05, Final residual = 3.35383e-07, No Iterations 1
DILUPBiCGStab:  Solving for Uz, Initial residual = 0.00219633, Final residual = 1.58313e-05, No Iterations 1
DILUPBiCGStab:  Solving for e, Initial residual = 6.94309e-05, Final residual = 3.78597e-06, No Iterations 1
DICPCG:  Solving for p_rgh, Initial residual = 0.0786219, Final residual = 0.000770053, No Iterations 16
time step continuity errors : sum local = 0.0101979, global = 0.000991, cumulative = 0.083649
DILUPBiCGStab:  Solving for epsilon, Initial residual = 0.000336404, Final residual = 2.96801e-05, No Iterations 1
DILUPBiCGStab:  Solving for k, Initial residual = 9.91203e-05, Final residual = 9.56733e-06, No Iterations 1
ExecutionTime = 11.91 s  ClockTime = 12 s

Time = 83

DILUPBiCGStab:  Solving for Ux, Initial residual = 8.00948e-05, Final residual = 3.27601e-07, No Iterations 1
DILUPBiCGStab:  Solving for Uz, Initial residual = 0.00215583, Final residual = 1.42524e-05, No Iterations 1
DILUPBiCGStab:  Solving for e, Initial residual = 6.88318e-05, Final residual = 3.75636e-06, No Iterations 1
DICPCG:  Solving for p_rgh, Initial residual = 0.068052, Final residual = 0.000653469, No Iterations 147
time step continuity errors : sum local = 0.0085447, global = 1.81476e-05, cumulative = 0.0836672
DILUPBiCGStab:  Solving for epsilon, Initial residual = 0.000331863, Final residual = 2.82466e-05, No Iterations 1
DILUPBiCGStab:  Solving for k, Initial residual = 0.00010311, Final residual = 1.25731e-06, No Iterations 1
ExecutionTime = 12.08 s  ClockTime = 12 s

Time = 84

DILUPBiCGStab:  Solving for Ux, Initial residual = 7.97201e-05, Final residual = 3.2378e-07, No Iterations 1
DILUPBiCGStab:  Solving for Uz, Initial residual = 0.00211506, Final residual = 1.50173e-05, No Iterations 1
DILUPBiCGStab:  Solving for e, Initial residual = 6.83657e-05, Final residual = 3.73114e-06, No Iterations 1
DICPCG:  Solving for p_rgh, Initial residual = 0.0775323, Final residual = 0.000758946, No Iterations 22
time step continuity errors : sum local = 0.00999214, global = 0.000971546, cumulative = 0.0846387
DILUPBiCGStab:  Solving for epsilon, Initial residual = 0.000340967, Final residual = 3.01893e-05, No Iterations 1
DILUPBiCGStab:  Solving for k, Initial residual = 9.89654e-05, Final residual = 9.92548e-06, No Iterations 1
ExecutionTime = 12.14 s  ClockTime = 12 s

Time = 85

DILUPBiCGStab:  Solving for Ux, Initial residual = 7.91942e-05, Final residual = 3.16202e-07, No Iterations 1
DILUPBiCGStab:  Solving for Uz, Initial residual = 0.00209642, Final residual = 1.49493e-05, No Iterations 1
DILUPBiCGStab:  Solving for e, Initial residual = 6.7802e-05, Final residual = 3.69769e-06, No Iterations 1
DICPCG:  Solving for p_rgh, Initial residual = 0.0696445, Final residual = 0.000674056, No Iterations 149
time step continuity errors : sum local = 0.0087857, global = 0.00014049, cumulative = 0.0847792
DILUPBiCGStab:  Solving for epsilon, Initial residual = 0.000341053, Final residual = 2.84732e-05, No Iterations 1
DILUPBiCGStab:  Solving for k, Initial residual = 0.000101646, Final residual = 1.28109e-06, No Iterations 1
ExecutionTime = 12.28 s  ClockTime = 12 s

Time = 86

DILUPBiCGStab:  Solving for Ux, Initial residual = 7.91624e-05, Final residual = 3.16576e-07, No Iterations 1
DILUPBiCGStab:  Solving for Uz, Initial residual = 0.00213346, Final residual = 1.51705e-05, No Iterations 1
DILUPBiCGStab:  Solving for e, Initial residual = 6.72972e-05, Final residual = 3.66479e-06, No Iterations 1
DICPCG:  Solving for p_rgh, Initial residual = 0.0748722, Final residual = 0.00072049, No Iterations 28
time step continuity errors : sum local = 0.0093813, global = 0.00117552, cumulative = 0.0859547
DILUPBiCGStab:  Solving for epsilon, Initial residual = 0.000342855, Final residual = 2.98444e-05, No Iterations 1
DILUPBiCGStab:  Solving for k, Initial residual = 9.94982e-05, Final residual = 1.28099e-06, No Iterations 1
ExecutionTime = 12.36 s  ClockTime = 12 s

Time = 87

DILUPBiCGStab:  Solving for Ux, Initial residual = 7.87375e-05, Final residual = 3.07818e-07, No Iterations 1
DILUPBiCGStab:  Solving for Uz, Initial residual = 0.00213757, Final residual = 1.61864e-05, No Iterations 1
DILUPBiCGStab:  Solving for e, Initial residual = 6.68154e-05, Final residual = 3.6297e-06, No Iterations 1
DICPCG:  Solving for p_rgh, Initial residual = 0.0795441, Final residual = 0.000758604, No Iterations 75
time step continuity errors : sum local = 0.00994202, global = 0.0013401, cumulative = 0.0872948
DILUPBiCGStab:  Solving for epsilon, Initial residual = 0.000340653, Final residual = 2.9261e-05, No Iterations 1
DILUPBiCGStab:  Solving for k, Initial residual = 0.000100417, Final residual = 1.3282e-06, No Iterations 1
ExecutionTime = 12.45 s  ClockTime = 12 s

Time = 88

DILUPBiCGStab:  Solving for Ux, Initial residual = 7.83392e-05, Final residual = 3.02963e-07, No Iterations 1
DILUPBiCGStab:  Solving for Uz, Initial residual = 0.0020001, Final residual = 1.46014e-05, No Iterations 1
DILUPBiCGStab:  Solving for e, Initial residual = 6.62756e-05, Final residual = 3.59093e-06, No Iterations 1
DICPCG:  Solving for p_rgh, Initial residual = 0.0716253, Final residual = 0.000690735, No Iterations 141
time step continuity errors : sum local = 0.00895426, global = -4.46041e-05, cumulative = 0.0872502
DILUPBiCGStab:  Solving for epsilon, Initial residual = 0.000360332, Final residual = 3.02119e-05, No Iterations 1
DILUPBiCGStab:  Solving for k, Initial residual = 9.97036e-05, Final residual = 1.30409e-06, No Iterations 1
ExecutionTime = 12.62 s  ClockTime = 12 s

Time = 89

DILUPBiCGStab:  Solving for Ux, Initial residual = 7.78575e-05, Final residual = 3.03909e-07, No Iterations 1
DILUPBiCGStab:  Solving for Uz, Initial residual = 0.00205094, Final residual = 1.3577e-05, No Iterations 1
DILUPBiCGStab:  Solving for e, Initial residual = 6.57408e-05, Final residual = 3.55187e-06, No Iterations 1
DICPCG:  Solving for p_rgh, Initial residual = 0.0624391, Final residual = 0.00058759, No Iterations 23
time step continuity errors : sum local = 0.00755078, global = 0.000579433, cumulative = 0.0878297
DILUPBiCGStab:  Solving for epsilon, Initial residual = 0.000345533, Final residual = 2.9803e-05, No Iterations 1
DILUPBiCGStab:  Solving for k, Initial residual = 9.76477e-05, Final residual = 1.24461e-06, No Iterations 1
ExecutionTime = 12.68 s  ClockTime = 13 s

Time = 90

DILUPBiCGStab:  Solving for Ux, Initial residual = 7.75259e-05, Final residual = 2.97317e-07, No Iterations 1
DILUPBiCGStab:  Solving for Uz, Initial residual = 0.00206196, Final residual = 1.41599e-05, No Iterations 1
DILUPBiCGStab:  Solving for e, Initial residual = 6.528e-05, Final residual = 3.51248e-06, No Iterations 1
DICPCG:  Solving for p_rgh, Initial residual = 0.0689456, Final residual = 0.000652557, No Iterations 31
time step continuity errors : sum local = 0.00839303, global = 0.000917559, cumulative = 0.0887472
DILUPBiCGStab:  Solving for epsilon, Initial residual = 0.000346032, Final residual = 2.9763e-05, No Iterations 1
DILUPBiCGStab:  Solving for k, Initial residual = 9.90126e-05, Final residual = 1.31834e-06, No Iterations 1
ExecutionTime = 12.75 s  ClockTime = 13 s

Time = 91

DILUPBiCGStab:  Solving for Ux, Initial residual = 7.7551e-05, Final residual = 2.93875e-07, No Iterations 1
DILUPBiCGStab:  Solving for Uz, Initial residual = 0.00205676, Final residual = 1.4849e-05, No Iterations 1
DILUPBiCGStab:  Solving for e, Initial residual = 6.48096e-05, Final residual = 3.47037e-06, No Iterations 1
DICPCG:  Solving for p_rgh, Initial residual = 0.067112, Final residual = 0.000641108, No Iterations 141
time step continuity errors : sum local = 0.00819751, global = 5.10895e-05, cumulative = 0.0887983
DILUPBiCGStab:  Solving for epsilon, Initial residual = 0.000349435, Final residual = 3.0555e-05, No Iterations 1
DILUPBiCGStab:  Solving for k, Initial residual = 9.71373e-05, Final residual = 1.31654e-06, No Iterations 1
ExecutionTime = 12.91 s  ClockTime = 13 s

Time = 92

DILUPBiCGStab:  Solving for Ux, Initial residual = 7.73425e-05, Final residual = 2.91851e-07, No Iterations 1
DILUPBiCGStab:  Solving for Uz, Initial residual = 0.0020066, Final residual = 1.28833e-05, No Iterations 1
DILUPBiCGStab:  Solving for e, Initial residual = 6.43529e-05, Final residual = 3.42819e-06, No Iterations 1
DICPCG:  Solving for p_rgh, Initial residual = 0.0581385, Final residual = 0.000546558, No Iterations 27
time step continuity errors : sum local = 0.00693621, global = 0.000529992, cumulative = 0.0893283
DILUPBiCGStab:  Solving for epsilon, Initial residual = 0.00035576, Final residual = 2.99588e-05, No Iterations 1
DILUPBiCGStab:  Solving for k, Initial residual = 9.94301e-05, Final residual = 1.36275e-06, No Iterations 1
ExecutionTime = 12.97 s  ClockTime = 13 s

Time = 93

DILUPBiCGStab:  Solving for Ux, Initial residual = 7.69308e-05, Final residual = 2.88147e-07, No Iterations 1
DILUPBiCGStab:  Solving for Uz, Initial residual = 0.00202467, Final residual = 1.44108e-05, No Iterations 1
DILUPBiCGStab:  Solving for e, Initial residual = 6.39003e-05, Final residual = 3.38724e-06, No Iterations 1
DICPCG:  Solving for p_rgh, Initial residual = 0.0708503, Final residual = 0.00069042, No Iterations 21
time step continuity errors : sum local = 0.0088503, global = 0.00104808, cumulative = 0.0903764
DILUPBiCGStab:  Solving for epsilon, Initial residual = 0.000353996, Final residual = 3.0079e-05, No Iterations 1
DILUPBiCGStab:  Solving for k, Initial residual = 9.63735e-05, Final residual = 1.30232e-06, No Iterations 1
ExecutionTime = 13.04 s  ClockTime = 13 s

Time = 94

DILUPBiCGStab:  Solving for Ux, Initial residual = 7.66467e-05, Final residual = 2.83608e-07, No Iterations 1
DILUPBiCGStab:  Solving for Uz, Initial residual = 0.00201804, Final residual = 1.44757e-05, No Iterations 1
DILUPBiCGStab:  Solving for e, Initial residual = 6.34497e-05, Final residual = 3.34428e-06, No Iterations 1
DICPCG:  Solving for p_rgh, Initial residual = 0.0663794, Final residual = 0.000656306, No Iterations 144
time step continuity errors : sum local = 0.00834008, global = 0.000204426, cumulative = 0.0905808
DILUPBiCGStab:  Solving for epsilon, Initial residual = 0.000334624, Final residual = 3.00342e-05, No Iterations 1
DILUPBiCGStab:  Solving for k, Initial residual = 9.47161e-05, Final residual = 1.314e-06, No Iterations 1
ExecutionTime = 13.18 s  ClockTime = 13 s

Time = 95

DILUPBiCGStab:  Solving for Ux, Initial residual = 7.61041e-05, Final residual = 2.79589e-07, No Iterations 1
DILUPBiCGStab:  Solving for Uz, Initial residual = 0.00192015, Final residual = 1.18606e-05, No Iterations 1
DILUPBiCGStab:  Solving for e, Initial residual = 6.30162e-05, Final residual = 3.29955e-06, No Iterations 1
DICPCG:  Solving for p_rgh, Initial residual = 0.0531156, Final residual = 0.000523878, No Iterations 70
time step continuity errors : sum local = 0.00657758, global = 0.000670756, cumulative = 0.0912516
DILUPBiCGStab:  Solving for epsilon, Initial residual = 0.000358297, Final residual = 3.00382e-05, No Iterations 1
DILUPBiCGStab:  Solving for k, Initial residual = 9.83465e-05, Final residual = 1.37191e-06, No Iterations 1
ExecutionTime = 13.27 s  ClockTime = 13 s

Time = 96

DILUPBiCGStab:  Solving for Ux, Initial residual = 7.59815e-05, Final residual = 2.79373e-07, No Iterations 1
DILUPBiCGStab:  Solving for Uz, Initial residual = 0.00194772, Final residual = 1.37893e-05, No Iterations 1
DILUPBiCGStab:  Solving for e, Initial residual = 6.2578e-05, Final residual = 3.25638e-06, No Iterations 1
DICPCG:  Solving for p_rgh, Initial residual = 0.066455, Final residual = 0.000623119, No Iterations 20
time step continuity errors : sum local = 0.00794488, global = 0.00115733, cumulative = 0.0924089
DILUPBiCGStab:  Solving for epsilon, Initial residual = 0.000362598, Final residual = 3.07343e-05, No Iterations 1
DILUPBiCGStab:  Solving for k, Initial residual = 9.49763e-05, Final residual = 1.31973e-06, No Iterations 1
ExecutionTime = 13.35 s  ClockTime = 13 s

Time = 97

DILUPBiCGStab:  Solving for Ux, Initial residual = 7.57591e-05, Final residual = 2.75462e-07, No Iterations 1
DILUPBiCGStab:  Solving for Uz, Initial residual = 0.00194905, Final residual = 1.43924e-05, No Iterations 1
DILUPBiCGStab:  Solving for e, Initial residual = 6.21575e-05, Final residual = 3.21134e-06, No Iterations 1
DICPCG:  Solving for p_rgh, Initial residual = 0.0654528, Final residual = 0.000575035, No Iterations 156
time step continuity errors : sum local = 0.00724561, global = 6.9053e-05, cumulative = 0.0924779
[...]
DICPCG:  Solving for p_rgh, Initial residual = 0.0186894, Final residual = 0.000179412, No Iterations 18
time step continuity errors : sum local = 0.00201282, global = -5.12386e-05, cumulative = -1.13484
DILUPBiCGStab:  Solving for epsilon, Initial residual = 0.000521204, Final residual = 4.17867e-05, No Iterations 1
DILUPBiCGStab:  Solving for k, Initial residual = 0.000137016, Final residual = 2.28696e-06, No Iterations 1
ExecutionTime = 369.5 s  ClockTime = 370 s

Time = 4977

DILUPBiCGStab:  Solving for Ux, Initial residual = 2.52649e-05, Final residual = 2.98425e-07, No Iterations 1
DILUPBiCGStab:  Solving for Uz, Initial residual = 2.53744e-05, Final residual = 3.81973e-07, No Iterations 1
DILUPBiCGStab:  Solving for e, Initial residual = 7.09297e-05, Final residual = 3.68449e-06, No Iterations 1
DICPCG:  Solving for p_rgh, Initial residual = 0.0211414, Final residual = 0.000204247, No Iterations 14
time step continuity errors : sum local = 0.00229932, global = -0.000126213, cumulative = -1.13497
DILUPBiCGStab:  Solving for epsilon, Initial residual = 0.000454615, Final residual = 3.75303e-05, No Iterations 1
DILUPBiCGStab:  Solving for k, Initial residual = 0.000142447, Final residual = 2.48616e-06, No Iterations 1
ExecutionTime = 369.57 s  ClockTime = 370 s

Time = 4978

DILUPBiCGStab:  Solving for Ux, Initial residual = 2.50927e-05, Final residual = 3.07492e-07, No Iterations 1
DILUPBiCGStab:  Solving for Uz, Initial residual = 2.46966e-05, Final residual = 3.69347e-07, No Iterations 1
DILUPBiCGStab:  Solving for e, Initial residual = 7.07063e-05, Final residual = 3.53328e-06, No Iterations 1
DICPCG:  Solving for p_rgh, Initial residual = 0.0203467, Final residual = 0.000189638, No Iterations 17
time step continuity errors : sum local = 0.0021317, global = -2.27439e-08, cumulative = -1.13497
DILUPBiCGStab:  Solving for epsilon, Initial residual = 0.000497036, Final residual = 4.29519e-05, No Iterations 1
DILUPBiCGStab:  Solving for k, Initial residual = 0.000133138, Final residual = 2.30713e-06, No Iterations 1
ExecutionTime = 369.63 s  ClockTime = 370 s

Time = 4979

DILUPBiCGStab:  Solving for Ux, Initial residual = 2.5925e-05, Final residual = 3.28297e-07, No Iterations 1
DILUPBiCGStab:  Solving for Uz, Initial residual = 2.5079e-05, Final residual = 3.67157e-07, No Iterations 1
DILUPBiCGStab:  Solving for e, Initial residual = 6.9766e-05, Final residual = 3.13065e-06, No Iterations 1
DICPCG:  Solving for p_rgh, Initial residual = 0.018397, Final residual = 0.000181821, No Iterations 19
time step continuity errors : sum local = 0.00203909, global = -0.000122971, cumulative = -1.13509
DILUPBiCGStab:  Solving for epsilon, Initial residual = 0.000528485, Final residual = 4.10802e-05, No Iterations 1
DILUPBiCGStab:  Solving for k, Initial residual = 0.0001408, Final residual = 2.36025e-06, No Iterations 1
ExecutionTime = 369.7 s  ClockTime = 370 s

Time = 4980

DILUPBiCGStab:  Solving for Ux, Initial residual = 2.54108e-05, Final residual = 3.12212e-07, No Iterations 1
DILUPBiCGStab:  Solving for Uz, Initial residual = 2.44333e-05, Final residual = 3.70569e-07, No Iterations 1
DILUPBiCGStab:  Solving for e, Initial residual = 6.98033e-05, Final residual = 3.16328e-06, No Iterations 1
DICPCG:  Solving for p_rgh, Initial residual = 0.0225607, Final residual = 0.000220241, No Iterations 15
time step continuity errors : sum local = 0.00248207, global = -3.15782e-06, cumulative = -1.1351
DILUPBiCGStab:  Solving for epsilon, Initial residual = 0.000414601, Final residual = 3.52649e-05, No Iterations 1
DILUPBiCGStab:  Solving for k, Initial residual = 0.00013748, Final residual = 2.3626e-06, No Iterations 1
ExecutionTime = 369.76 s  ClockTime = 370 s

Time = 4981

DILUPBiCGStab:  Solving for Ux, Initial residual = 2.54197e-05, Final residual = 3.13458e-07, No Iterations 1
DILUPBiCGStab:  Solving for Uz, Initial residual = 2.4693e-05, Final residual = 3.71552e-07, No Iterations 1
DILUPBiCGStab:  Solving for e, Initial residual = 7.01753e-05, Final residual = 3.30565e-06, No Iterations 1
DICPCG:  Solving for p_rgh, Initial residual = 0.0202354, Final residual = 0.000191168, No Iterations 15
time step continuity errors : sum local = 0.00214617, global = -8.08506e-05, cumulative = -1.13518
DILUPBiCGStab:  Solving for epsilon, Initial residual = 0.000542179, Final residual = 4.51259e-05, No Iterations 1
DILUPBiCGStab:  Solving for k, Initial residual = 0.000139782, Final residual = 2.43254e-06, No Iterations 1
ExecutionTime = 369.83 s  ClockTime = 370 s

Time = 4982

DILUPBiCGStab:  Solving for Ux, Initial residual = 2.54547e-05, Final residual = 3.16772e-07, No Iterations 1
DILUPBiCGStab:  Solving for Uz, Initial residual = 2.49519e-05, Final residual = 3.69092e-07, No Iterations 1
DILUPBiCGStab:  Solving for e, Initial residual = 7.10342e-05, Final residual = 3.73508e-06, No Iterations 1
DICPCG:  Solving for p_rgh, Initial residual = 0.0195767, Final residual = 0.000186214, No Iterations 15
time step continuity errors : sum local = 0.00209281, global = -4.04573e-05, cumulative = -1.13522
DILUPBiCGStab:  Solving for epsilon, Initial residual = 0.000505644, Final residual = 4.07984e-05, No Iterations 1
DILUPBiCGStab:  Solving for k, Initial residual = 0.000135716, Final residual = 2.29166e-06, No Iterations 1
ExecutionTime = 369.89 s  ClockTime = 370 s

Time = 4983

DILUPBiCGStab:  Solving for Ux, Initial residual = 2.49728e-05, Final residual = 2.84324e-07, No Iterations 1
DILUPBiCGStab:  Solving for Uz, Initial residual = 2.53573e-05, Final residual = 3.81874e-07, No Iterations 1
DILUPBiCGStab:  Solving for e, Initial residual = 7.11358e-05, Final residual = 3.66493e-06, No Iterations 1
DICPCG:  Solving for p_rgh, Initial residual = 0.019734, Final residual = 0.000191074, No Iterations 13
time step continuity errors : sum local = 0.00215301, global = -0.000104494, cumulative = -1.13532
DILUPBiCGStab:  Solving for epsilon, Initial residual = 0.000444668, Final residual = 3.68221e-05, No Iterations 1
DILUPBiCGStab:  Solving for k, Initial residual = 0.00014142, Final residual = 2.4631e-06, No Iterations 1
ExecutionTime = 369.95 s  ClockTime = 370 s

Time = 4984

DILUPBiCGStab:  Solving for Ux, Initial residual = 2.50587e-05, Final residual = 3.07044e-07, No Iterations 1
DILUPBiCGStab:  Solving for Uz, Initial residual = 2.45686e-05, Final residual = 3.68136e-07, No Iterations 1
DILUPBiCGStab:  Solving for e, Initial residual = 7.11604e-05, Final residual = 3.59091e-06, No Iterations 1
DICPCG:  Solving for p_rgh, Initial residual = 0.0215445, Final residual = 0.000205506, No Iterations 15
time step continuity errors : sum local = 0.0023103, global = -3.84572e-07, cumulative = -1.13532
DILUPBiCGStab:  Solving for epsilon, Initial residual = 0.00050902, Final residual = 4.33589e-05, No Iterations 1
DILUPBiCGStab:  Solving for k, Initial residual = 0.000135229, Final residual = 2.36857e-06, No Iterations 1
ExecutionTime = 370.01 s  ClockTime = 370 s

Time = 4985

DILUPBiCGStab:  Solving for Ux, Initial residual = 2.59086e-05, Final residual = 3.31365e-07, No Iterations 1
DILUPBiCGStab:  Solving for Uz, Initial residual = 2.58325e-05, Final residual = 3.86138e-07, No Iterations 1
DILUPBiCGStab:  Solving for e, Initial residual = 7.13038e-05, Final residual = 3.69788e-06, No Iterations 1
DICPCG:  Solving for p_rgh, Initial residual = 0.0220419, Final residual = 0.000213899, No Iterations 16
time step continuity errors : sum local = 0.0024037, global = -0.000141814, cumulative = -1.13546
DILUPBiCGStab:  Solving for epsilon, Initial residual = 0.00053999, Final residual = 4.1389e-05, No Iterations 1
DILUPBiCGStab:  Solving for k, Initial residual = 0.000140671, Final residual = 2.35978e-06, No Iterations 1
ExecutionTime = 370.08 s  ClockTime = 370 s

Time = 4986

DILUPBiCGStab:  Solving for Ux, Initial residual = 2.53131e-05, Final residual = 3.08375e-07, No Iterations 1
DILUPBiCGStab:  Solving for Uz, Initial residual = 2.45974e-05, Final residual = 3.72452e-07, No Iterations 1
DILUPBiCGStab:  Solving for e, Initial residual = 7.03011e-05, Final residual = 3.33859e-06, No Iterations 1
DICPCG:  Solving for p_rgh, Initial residual = 0.021567, Final residual = 0.000212533, No Iterations 15
time step continuity errors : sum local = 0.00240048, global = -1.3427e-05, cumulative = -1.13548
DILUPBiCGStab:  Solving for epsilon, Initial residual = 0.000404478, Final residual = 3.46566e-05, No Iterations 1
DILUPBiCGStab:  Solving for k, Initial residual = 0.00013709, Final residual = 2.36196e-06, No Iterations 1
ExecutionTime = 370.14 s  ClockTime = 370 s

Time = 4987

DILUPBiCGStab:  Solving for Ux, Initial residual = 2.52819e-05, Final residual = 3.09992e-07, No Iterations 1
DILUPBiCGStab:  Solving for Uz, Initial residual = 2.44561e-05, Final residual = 3.68142e-07, No Iterations 1
DILUPBiCGStab:  Solving for e, Initial residual = 7.08763e-05, Final residual = 3.56487e-06, No Iterations 1
DICPCG:  Solving for p_rgh, Initial residual = 0.0192268, Final residual = 0.000188331, No Iterations 15
time step continuity errors : sum local = 0.00211446, global = -9.75386e-05, cumulative = -1.13557
DILUPBiCGStab:  Solving for epsilon, Initial residual = 0.000526491, Final residual = 4.41675e-05, No Iterations 1
DILUPBiCGStab:  Solving for k, Initial residual = 0.000137752, Final residual = 2.39026e-06, No Iterations 1
ExecutionTime = 370.21 s  ClockTime = 370 s

Time = 4988

DILUPBiCGStab:  Solving for Ux, Initial residual = 2.5439e-05, Final residual = 3.20717e-07, No Iterations 1
DILUPBiCGStab:  Solving for Uz, Initial residual = 2.45085e-05, Final residual = 3.68262e-07, No Iterations 1
DILUPBiCGStab:  Solving for e, Initial residual = 6.96535e-05, Final residual = 3.00679e-06, No Iterations 1
DICPCG:  Solving for p_rgh, Initial residual = 0.0194989, Final residual = 0.000174167, No Iterations 15
time step continuity errors : sum local = 0.00195413, global = -5.63454e-05, cumulative = -1.13563
DILUPBiCGStab:  Solving for epsilon, Initial residual = 0.000509648, Final residual = 4.0569e-05, No Iterations 1
DILUPBiCGStab:  Solving for k, Initial residual = 0.000136541, Final residual = 2.29038e-06, No Iterations 1
ExecutionTime = 370.26 s  ClockTime = 370 s

Time = 4989

DILUPBiCGStab:  Solving for Ux, Initial residual = 2.507e-05, Final residual = 2.9718e-07, No Iterations 1
DILUPBiCGStab:  Solving for Uz, Initial residual = 2.48343e-05, Final residual = 3.78749e-07, No Iterations 1
DILUPBiCGStab:  Solving for e, Initial residual = 7.12283e-05, Final residual = 3.66056e-06, No Iterations 1
DICPCG:  Solving for p_rgh, Initial residual = 0.0193947, Final residual = 0.00017536, No Iterations 14
time step continuity errors : sum local = 0.0019745, global = -0.000121818, cumulative = -1.13575
DILUPBiCGStab:  Solving for epsilon, Initial residual = 0.000452393, Final residual = 3.77893e-05, No Iterations 1
DILUPBiCGStab:  Solving for k, Initial residual = 0.000142114, Final residual = 2.46703e-06, No Iterations 1
ExecutionTime = 370.33 s  ClockTime = 371 s

Time = 4990

DILUPBiCGStab:  Solving for Ux, Initial residual = 2.49476e-05, Final residual = 3.02581e-07, No Iterations 1
DILUPBiCGStab:  Solving for Uz, Initial residual = 2.46914e-05, Final residual = 3.72209e-07, No Iterations 1
DILUPBiCGStab:  Solving for e, Initial residual = 7.1982e-05, Final residual = 3.92012e-06, No Iterations 1
DICPCG:  Solving for p_rgh, Initial residual = 0.0215481, Final residual = 0.000202115, No Iterations 15
time step continuity errors : sum local = 0.00227521, global = -7.49937e-06, cumulative = -1.13576
DILUPBiCGStab:  Solving for epsilon, Initial residual = 0.000505254, Final residual = 4.29763e-05, No Iterations 1
DILUPBiCGStab:  Solving for k, Initial residual = 0.000134075, Final residual = 2.34557e-06, No Iterations 1
ExecutionTime = 370.39 s  ClockTime = 371 s

Time = 4991

DILUPBiCGStab:  Solving for Ux, Initial residual = 2.58808e-05, Final residual = 3.28823e-07, No Iterations 1
DILUPBiCGStab:  Solving for Uz, Initial residual = 2.58119e-05, Final residual = 3.89592e-07, No Iterations 1
DILUPBiCGStab:  Solving for e, Initial residual = 7.07575e-05, Final residual = 3.52221e-06, No Iterations 1
DICPCG:  Solving for p_rgh, Initial residual = 0.0214621, Final residual = 0.000206505, No Iterations 16
time step continuity errors : sum local = 0.00232095, global = -0.000145254, cumulative = -1.13591
DILUPBiCGStab:  Solving for epsilon, Initial residual = 0.000540196, Final residual = 4.17226e-05, No Iterations 1
DILUPBiCGStab:  Solving for k, Initial residual = 0.00014093, Final residual = 2.35428e-06, No Iterations 1
ExecutionTime = 370.45 s  ClockTime = 371 s

Time = 4992

DILUPBiCGStab:  Solving for Ux, Initial residual = 2.53032e-05, Final residual = 3.11634e-07, No Iterations 1
DILUPBiCGStab:  Solving for Uz, Initial residual = 2.43932e-05, Final residual = 3.72225e-07, No Iterations 1
DILUPBiCGStab:  Solving for e, Initial residual = 7.05848e-05, Final residual = 3.59292e-06, No Iterations 1
DICPCG:  Solving for p_rgh, Initial residual = 0.0211648, Final residual = 0.000209261, No Iterations 16
time step continuity errors : sum local = 0.00236149, global = -1.54815e-05, cumulative = -1.13592
DILUPBiCGStab:  Solving for epsilon, Initial residual = 0.000403236, Final residual = 3.43261e-05, No Iterations 1
DILUPBiCGStab:  Solving for k, Initial residual = 0.000136007, Final residual = 2.33686e-06, No Iterations 1
ExecutionTime = 370.52 s  ClockTime = 371 s

Time = 4993

DILUPBiCGStab:  Solving for Ux, Initial residual = 2.52075e-05, Final residual = 3.09902e-07, No Iterations 1
DILUPBiCGStab:  Solving for Uz, Initial residual = 2.41811e-05, Final residual = 3.6338e-07, No Iterations 1
DILUPBiCGStab:  Solving for e, Initial residual = 6.96181e-05, Final residual = 2.92961e-06, No Iterations 1
DICPCG:  Solving for p_rgh, Initial residual = 0.0189571, Final residual = 0.000161059, No Iterations 16
time step continuity errors : sum local = 0.00180775, global = -9.53321e-05, cumulative = -1.13602
DILUPBiCGStab:  Solving for epsilon, Initial residual = 0.000527518, Final residual = 4.44874e-05, No Iterations 1
DILUPBiCGStab:  Solving for k, Initial residual = 0.000138683, Final residual = 2.42236e-06, No Iterations 1
ExecutionTime = 370.59 s  ClockTime = 371 s

Time = 4994

DILUPBiCGStab:  Solving for Ux, Initial residual = 2.51664e-05, Final residual = 3.11068e-07, No Iterations 1
DILUPBiCGStab:  Solving for Uz, Initial residual = 2.454e-05, Final residual = 3.70523e-07, No Iterations 1
DILUPBiCGStab:  Solving for e, Initial residual = 6.97485e-05, Final residual = 3.13561e-06, No Iterations 1
DICPCG:  Solving for p_rgh, Initial residual = 0.0181141, Final residual = 0.00017007, No Iterations 16
time step continuity errors : sum local = 0.00190697, global = -5.02199e-05, cumulative = -1.13607
DILUPBiCGStab:  Solving for epsilon, Initial residual = 0.000518713, Final residual = 4.2e-05, No Iterations 1
DILUPBiCGStab:  Solving for k, Initial residual = 0.000137025, Final residual = 2.30592e-06, No Iterations 1
ExecutionTime = 370.65 s  ClockTime = 371 s

Time = 4995

DILUPBiCGStab:  Solving for Ux, Initial residual = 2.47262e-05, Final residual = 2.79132e-07, No Iterations 1
DILUPBiCGStab:  Solving for Uz, Initial residual = 2.50661e-05, Final residual = 3.84573e-07, No Iterations 1
DILUPBiCGStab:  Solving for e, Initial residual = 7.32434e-05, Final residual = 4.1659e-06, No Iterations 1
DICPCG:  Solving for p_rgh, Initial residual = 0.0201162, Final residual = 0.000175323, No Iterations 14
time step continuity errors : sum local = 0.00197362, global = -0.000118534, cumulative = -1.13619
DILUPBiCGStab:  Solving for epsilon, Initial residual = 0.000451139, Final residual = 3.72558e-05, No Iterations 1
DILUPBiCGStab:  Solving for k, Initial residual = 0.000141157, Final residual = 2.44047e-06, No Iterations 1
ExecutionTime = 370.71 s  ClockTime = 371 s

Time = 4996

DILUPBiCGStab:  Solving for Ux, Initial residual = 2.49409e-05, Final residual = 3.04226e-07, No Iterations 1
DILUPBiCGStab:  Solving for Uz, Initial residual = 2.38144e-05, Final residual = 3.52894e-07, No Iterations 1
DILUPBiCGStab:  Solving for e, Initial residual = 7.02752e-05, Final residual = 3.3355e-06, No Iterations 1
DICPCG:  Solving for p_rgh, Initial residual = 0.0195331, Final residual = 0.000183896, No Iterations 18
time step continuity errors : sum local = 0.00206698, global = -5.64361e-06, cumulative = -1.13619
DILUPBiCGStab:  Solving for epsilon, Initial residual = 0.000498652, Final residual = 4.30481e-05, No Iterations 1
DILUPBiCGStab:  Solving for k, Initial residual = 0.000133603, Final residual = 2.37482e-06, No Iterations 1
ExecutionTime = 370.78 s  ClockTime = 371 s

Time = 4997

DILUPBiCGStab:  Solving for Ux, Initial residual = 2.55935e-05, Final residual = 3.26384e-07, No Iterations 1
DILUPBiCGStab:  Solving for Uz, Initial residual = 2.53699e-05, Final residual = 3.79913e-07, No Iterations 1
DILUPBiCGStab:  Solving for e, Initial residual = 7.13094e-05, Final residual = 3.80366e-06, No Iterations 1
DICPCG:  Solving for p_rgh, Initial residual = 0.0196712, Final residual = 0.000191077, No Iterations 22
time step continuity errors : sum local = 0.00214292, global = -0.000130198, cumulative = -1.13632
DILUPBiCGStab:  Solving for epsilon, Initial residual = 0.000539064, Final residual = 4.18708e-05, No Iterations 1
DILUPBiCGStab:  Solving for k, Initial residual = 0.000139392, Final residual = 2.34368e-06, No Iterations 1
ExecutionTime = 370.84 s  ClockTime = 371 s

Time = 4998

DILUPBiCGStab:  Solving for Ux, Initial residual = 2.51361e-05, Final residual = 3.0598e-07, No Iterations 1
DILUPBiCGStab:  Solving for Uz, Initial residual = 2.41539e-05, Final residual = 3.67687e-07, No Iterations 1
DILUPBiCGStab:  Solving for e, Initial residual = 6.99359e-05, Final residual = 3.07859e-06, No Iterations 1
DICPCG:  Solving for p_rgh, Initial residual = 0.0201582, Final residual = 0.000193901, No Iterations 19
time step continuity errors : sum local = 0.00218451, global = -2.1902e-05, cumulative = -1.13634
DILUPBiCGStab:  Solving for epsilon, Initial residual = 0.000396899, Final residual = 3.39547e-05, No Iterations 1
DILUPBiCGStab:  Solving for k, Initial residual = 0.000136756, Final residual = 2.33527e-06, No Iterations 1
ExecutionTime = 370.91 s  ClockTime = 371 s

Time = 4999

DILUPBiCGStab:  Solving for Ux, Initial residual = 2.50228e-05, Final residual = 3.06192e-07, No Iterations 1
DILUPBiCGStab:  Solving for Uz, Initial residual = 2.40894e-05, Final residual = 3.63875e-07, No Iterations 1
DILUPBiCGStab:  Solving for e, Initial residual = 7.01328e-05, Final residual = 3.24724e-06, No Iterations 1
DICPCG:  Solving for p_rgh, Initial residual = 0.0181471, Final residual = 0.000175204, No Iterations 19
time step continuity errors : sum local = 0.00196379, global = -8.84558e-05, cumulative = -1.13643
DILUPBiCGStab:  Solving for epsilon, Initial residual = 0.000538217, Final residual = 4.53754e-05, No Iterations 1
DILUPBiCGStab:  Solving for k, Initial residual = 0.000139382, Final residual = 2.42412e-06, No Iterations 1
ExecutionTime = 370.99 s  ClockTime = 371 s

Time = 5000

DILUPBiCGStab:  Solving for Ux, Initial residual = 2.53658e-05, Final residual = 3.16756e-07, No Iterations 1
DILUPBiCGStab:  Solving for Uz, Initial residual = 2.4371e-05, Final residual = 3.62502e-07, No Iterations 1
DILUPBiCGStab:  Solving for e, Initial residual = 7.1115e-05, Final residual = 3.782e-06, No Iterations 1
DICPCG:  Solving for p_rgh, Initial residual = 0.0195204, Final residual = 0.000189631, No Iterations 17
time step continuity errors : sum local = 0.0021295, global = -4.73868e-05, cumulative = -1.13648
DILUPBiCGStab:  Solving for epsilon, Initial residual = 0.00052538, Final residual = 4.19068e-05, No Iterations 1
DILUPBiCGStab:  Solving for k, Initial residual = 0.000136351, Final residual = 2.33151e-06, No Iterations 1
ExecutionTime = 371.26 s  ClockTime = 371 s

End

